144
-2818.99369
O    -4.195000000    -5.098000000    -1.496000000
H    -4.163000000    -5.447000000    -0.606000000
H    -3.569000000    -4.374000000    -1.492000000
O    -2.459000000     1.438000000     2.270000000
H    -2.064000000     2.204000000     1.853000000
H    -2.885000000     0.968000000     1.553000000
O     5.212000000    -1.399000000     5.705000000
H     4.804000000    -1.784000000     4.929000000
H     6.011000000    -0.987000000     5.376000000
O    -1.502000000    -5.268000000    -3.667000000
H    -2.068000000    -4.497000000    -3.624000000
H    -1.471000000    -5.492000000    -4.597000000
O    -2.292000000     4.721000000    -0.801000000
H    -3.002000000     4.130000000    -1.055000000
H    -1.909000000     4.314000000    -0.024000000
O     2.887000000     3.175000000     2.605000000
H     2.675000000     2.766000000     3.445000000
H     3.665000000     3.702000000     2.786000000
O     3.018000000     2.617000000    -2.291000000
H     2.399000000     1.986000000    -2.658000000
H     2.752000000     3.458000000    -2.662000000
O    -0.336000000    -2.398000000     7.006000000
H     0.401000000    -1.793000000     6.921000000
H    -0.848000000    -2.265000000     6.208000000
O    -0.172000000     4.915000000    -3.141000000
H     0.303000000     5.727000000    -2.968000000
H    -0.922000000     4.944000000    -2.547000000
O     0.159000000     0.975000000     7.040000000
H    -0.158000000     1.055000000     6.140000000
H     1.112000000     0.941000000     6.956000000
O    -1.287000000     1.473000000     4.756000000
H    -1.644000000     1.635000000     3.883000000
H    -1.649000000     0.624000000     5.010000000
O    -4.234000000     3.464000000    -1.924000000
H    -4.458000000     2.559000000    -2.138000000
H    -3.787000000     3.791000000    -2.705000000
O    -3.108000000    -3.208000000     2.793000000
H    -3.554000000    -2.512000000     3.275000000
H    -3.768000000    -3.538000000     2.183000000
O    -0.194000000     2.947000000    -5.303000000
H    -1.027000000     3.171000000    -5.717000000
H    -0.205000000     3.421000000    -4.471000000
O     1.468000000     1.405000000     4.407000000
H     0.523000000     1.556000000     4.373000000
H     1.581000000     0.516000000     4.071000000
O    -0.924000000    -4.923000000     3.339000000
H    -0.279000000    -4.217000000     3.366000000
H    -1.708000000    -4.518000000     2.969000000
O    -2.399000000     7.365000000    -0.573000000
H    -2.126000000     6.456000000    -0.700000000
H    -3.238000000     7.429000000    -1.030000000
O     5.154000000     3.736000000    -0.903000000
H     4.454000000     3.313000000    -1.400000000
H     4.697000000     4.261000000    -0.246000000
O     0.508000000     6.588000000     0.197000000
H     0.378000000     6.111000000     1.016000000
H    -0.307000000     7.075000000     0.072000000
O     5.835000000     2.946000000     1.963000000
H     5.101000000     3.007000000     1.352000000
H     6.320000000     2.171000000     1.679000000
O     2.046000000    -4.576000000     4.474000000
H     1.768000000    -4.005000000     5.190000000
H     1.853000000    -4.077000000     3.680000000
O     0.632000000     5.935000000    -5.895000000
H    -0.150000000     6.480000000    -5.807000000
H     0.631000000     5.386000000    -5.111000000
O     3.273000000     1.086000000     6.385000000
H     2.773000000     1.312000000     5.601000000
H     4.182000000     1.050000000     6.087000000
O     0.723000000     5.404000000     2.774000000
H     1.197000000     6.126000000     3.186000000
H     1.389000000     4.935000000     2.273000000
O     4.249000000    -1.857000000     3.044000000
H     4.413000000    -2.236000000     2.181000000
H     3.392000000    -1.438000000     2.963000000
O    -1.619000000     4.093000000     1.748000000
H    -2.298000000     4.040000000     2.420000000
H    -0.980000000     4.712000000     2.102000000
O     2.272000000    -1.051000000    -5.266000000
H     2.024000000    -0.674000000    -4.421000000
H     2.360000000    -0.296000000    -5.848000000
O    -2.712000000    -2.520000000    -4.837000000
H    -2.754000000    -2.876000000    -5.725000000
H    -2.045000000    -1.836000000    -4.883000000
O    -1.660000000    -0.044000000    -5.473000000
H    -1.658000000     0.207000000    -6.397000000
H    -0.802000000     0.231000000    -5.149000000
O    -4.221000000     1.488000000    -5.274000000
H    -3.554000000     1.848000000    -5.859000000
H    -4.501000000     0.678000000    -5.700000000
O    -1.600000000    -4.881000000    -0.606000000
H    -1.562000000    -5.330000000    -1.451000000
H    -0.695000000    -4.879000000    -0.295000000
O     2.475000000     5.065000000    -1.291000000
H     2.815000000     4.720000000    -0.466000000
H     1.700000000     5.567000000    -1.040000000
O     4.890000000    -4.862000000     4.069000000
H     4.740000000    -5.476000000     3.350000000
H     4.013000000    -4.576000000     4.326000000
O    -4.648000000     0.987000000    -2.642000000
H    -4.420000000     1.230000000    -3.539000000
H    -4.846000000     0.052000000    -2.690000000
O     0.855000000    -7.107000000     2.763000000
H     0.011000000    -6.809000000     3.102000000
H     1.353000000    -7.352000000     3.543000000
O    -1.869000000    -5.582000000     5.749000000
H    -1.462000000    -5.165000000     4.989000000
H    -1.155000000    -6.059000000     6.171000000
O     1.851000000     0.039000000    -2.809000000
H     2.651000000    -0.275000000    -2.387000000
H     1.164000000    -0.108000000    -2.158000000
O     2.952000000    -3.803000000     7.593000000
H     2.814000000    -3.033000000     7.041000000
H     2.203000000    -3.808000000     8.189000000
O     0.677000000    -4.960000000     0.921000000
H     0.491000000    -4.247000000     1.532000000
H     0.978000000    -5.679000000     1.476000000
O     2.719000000    -3.666000000    -0.831000000
H     2.411000000    -4.113000000    -1.620000000
H     2.166000000    -4.011000000    -0.130000000
O    -5.347000000    -1.514000000     0.098000000
H    -5.342000000    -1.806000000    -0.813000000
H    -5.446000000    -2.319000000     0.607000000
O    -3.804000000    -6.150000000     0.951000000
H    -4.009000000    -6.842000000     1.579000000
H    -2.868000000    -6.254000000     0.777000000
O    -1.327000000    -2.032000000     4.530000000
H    -0.508000000    -1.931000000     4.046000000
H    -1.906000000    -2.499000000     3.927000000
O     2.126000000    -1.573000000     5.907000000
H     1.921000000    -1.289000000     5.016000000
H     2.830000000    -0.989000000     6.188000000
O    -4.354000000     1.088000000     0.137000000
H    -4.289000000     1.281000000    -0.799000000
H    -4.495000000     0.142000000     0.177000000
O    -3.237000000     4.372000000    -4.333000000
H    -3.160000000     3.682000000    -4.992000000
H    -2.821000000     5.135000000    -4.736000000
O     1.205000000    -4.688000000    -3.017000000
H     0.259000000    -4.746000000    -2.884000000
H     1.305000000    -4.126000000    -3.786000000
O    -4.680000000    -1.896000000    -3.054000000
H    -5.376000000    -1.768000000    -3.699000000
H    -3.960000000    -2.282000000    -3.553000000
