144
-2805.31041
O     1.593000000     0.467000000     4.841000000
H     0.718000000     0.264000000     5.171000000
H     1.946000000     1.096000000     5.470000000
O     2.749000000     2.621000000     2.412000000
H     2.521000000     3.530000000     2.218000000
H     2.125000000     2.356000000     3.087000000
O    -2.741000000     4.258000000    -0.100000000
H    -2.442000000     3.850000000    -0.912000000
H    -2.666000000     3.567000000     0.558000000
O     5.195000000    -6.048000000     2.060000000
H     5.800000000    -5.461000000     2.513000000
H     4.747000000    -5.487000000     1.427000000
O    -7.154000000     2.386000000    -2.708000000
H    -6.315000000     2.036000000    -2.408000000
H    -7.105000000     3.323000000    -2.516000000
O    -3.029000000    -3.060000000    -4.117000000
H    -3.845000000    -2.568000000    -4.028000000
H    -3.133000000    -3.551000000    -4.932000000
O    -2.033000000    -1.082000000     4.281000000
H    -1.331000000    -1.491000000     3.774000000
H    -1.627000000    -0.308000000     4.670000000
O     3.767000000    -1.203000000     2.289000000
H     4.394000000    -0.561000000     2.623000000
H     3.928000000    -1.227000000     1.346000000
O     0.709000000    -4.586000000     2.823000000
H     0.147000000    -4.994000000     2.165000000
H     0.661000000    -3.649000000     2.632000000
O    -5.209000000    -1.540000000    -1.045000000
H    -5.716000000    -1.835000000    -1.802000000
H    -5.047000000    -0.611000000    -1.212000000
O     2.114000000     1.858000000    -2.782000000
H     2.822000000     1.757000000    -3.418000000
H     2.556000000     1.881000000    -1.933000000
O    -1.416000000    -1.482000000    -6.318000000
H    -1.999000000    -0.723000000    -6.309000000
H    -1.270000000    -1.683000000    -5.393000000
O    -5.186000000     5.112000000     2.407000000
H    -5.171000000     4.156000000     2.448000000
H    -5.052000000     5.313000000     1.480000000
O    -2.860000000     0.685000000    -5.137000000
H    -3.076000000     1.610000000    -5.249000000
H    -2.012000000     0.689000000    -4.693000000
O     4.924000000     0.658000000    -2.567000000
H     5.521000000     1.176000000    -3.106000000
H     4.675000000     1.245000000    -1.853000000
O     1.093000000    -0.988000000    -5.040000000
H     1.112000000    -1.191000000    -5.975000000
H     2.013000000    -0.998000000    -4.774000000
O    -3.987000000    -4.203000000     1.135000000
H    -3.801000000    -4.106000000     0.201000000
H    -4.336000000    -3.351000000     1.398000000
O     0.943000000     4.387000000    -2.372000000
H     1.163000000     3.457000000    -2.412000000
H     0.963000000     4.678000000    -3.284000000
O    -2.605000000     4.313000000     3.775000000
H    -2.528000000     3.538000000     3.218000000
H    -2.832000000     5.021000000     3.172000000
O     5.893000000     1.321000000     2.347000000
H     5.875000000     1.426000000     3.298000000
H     5.400000000     2.070000000     2.013000000
O    -7.278000000    -0.553000000     2.206000000
H    -8.103000000    -0.971000000     1.958000000
H    -6.601000000    -1.137000000     1.865000000
O     1.200000000    -5.896000000    -0.949000000
H     1.241000000    -6.185000000    -0.038000000
H     0.294000000    -5.613000000    -1.070000000
O    -2.731000000     3.419000000    -2.983000000
H    -1.969000000     2.938000000    -3.305000000
H    -3.289000000     3.528000000    -3.753000000
O    -1.296000000    -5.045000000     0.799000000
H    -1.909000000    -4.362000000     1.069000000
H    -1.788000000    -5.860000000     0.895000000
O     4.003000000    -4.722000000    -0.128000000
H     3.051000000    -4.796000000    -0.203000000
H     4.222000000    -3.934000000    -0.626000000
O    -4.656000000    -1.471000000     1.517000000
H    -4.276000000    -0.603000000     1.653000000
H    -4.749000000    -1.545000000     0.567000000
O    -4.969000000     1.407000000    -1.573000000
H    -4.611000000     1.270000000    -0.696000000
H    -4.476000000     2.151000000    -1.919000000
O    -4.837000000     5.758000000    -0.100000000
H    -4.699000000     5.909000000    -1.035000000
H    -4.210000000     5.071000000     0.126000000
O     0.294000000    -1.774000000     2.282000000
H    -0.042000000    -1.462000000     1.442000000
H     1.174000000    -1.403000000     2.340000000
O     5.827000000    -1.634000000    -0.686000000
H     5.805000000    -0.793000000    -1.143000000
H     6.442000000    -2.165000000    -1.191000000
O    -4.588000000     0.354000000     4.590000000
H    -3.857000000    -0.134000000     4.213000000
H    -4.210000000     0.807000000     5.344000000
O     3.779000000     2.546000000    -0.208000000
H     3.937000000     2.466000000     0.733000000
H     3.035000000     3.145000000    -0.275000000
O     4.764000000     2.726000000     4.363000000
H     4.017000000     2.373000000     3.879000000
H     4.380000000     3.097000000     5.158000000
O    -1.145000000    -4.962000000    -3.293000000
H    -1.363000000    -5.802000000    -3.696000000
H    -1.851000000    -4.375000000    -3.565000000
O    -4.824000000    -0.829000000    -4.039000000
H    -5.605000000    -0.275000000    -4.032000000
H    -4.120000000    -0.245000000    -4.322000000
O    -5.474000000    -4.703000000    -2.287000000
H    -6.103000000    -4.020000000    -2.517000000
H    -4.698000000    -4.225000000    -1.995000000
O    -5.113000000     2.418000000     2.785000000
H    -4.942000000     1.924000000     3.587000000
H    -4.865000000     1.822000000     2.079000000
O     6.362000000     3.433000000    -0.339000000
H     5.680000000     2.896000000    -0.740000000
H     7.127000000     2.858000000    -0.299000000
O    -4.517000000     4.900000000     5.660000000
H    -4.302000000     4.284000000     4.960000000
H    -4.519000000     5.757000000     5.234000000
O     2.465000000    -2.082000000     4.483000000
H     3.018000000    -1.927000000     3.717000000
H     1.980000000    -1.265000000     4.597000000
O     3.766000000    -0.417000000    -4.971000000
H     3.554000000     0.492000000    -5.182000000
H     4.004000000    -0.399000000    -4.044000000
O     1.569000000     5.128000000     3.849000000
H     0.863000000     5.452000000     4.408000000
H     1.170000000     5.049000000     2.982000000
O     3.815000000    -3.743000000    -2.797000000
H     2.936000000    -4.010000000    -3.064000000
H     4.271000000    -3.561000000    -3.619000000
O     1.641000000    -5.290000000    -3.574000000
H     1.648000000    -5.549000000    -2.652000000
H     0.749000000    -4.980000000    -3.729000000
O    -1.289000000     2.961000000     5.984000000
H    -1.768000000     3.442000000     5.309000000
H    -0.916000000     3.641000000     6.544000000
O    -0.229000000     1.275000000    -4.178000000
H     0.511000000     1.634000000    -3.690000000
H     0.066000000     0.409000000    -4.458000000
O    -2.942000000    -3.664000000    -1.386000000
H    -2.881000000    -2.853000000    -1.892000000
H    -2.284000000    -4.240000000    -1.776000000
O     0.148000000     4.690000000     1.587000000
H    -0.622000000     4.124000000     1.641000000
H     0.051000000     5.149000000     0.753000000
