144
-2793.87332
O     5.312000000    -0.011000000     1.563000000
H     5.840000000    -0.309000000     2.304000000
H     4.422000000     0.048000000     1.911000000
O     0.408000000    -3.484000000    -4.557000000
H     1.213000000    -3.788000000    -4.976000000
H     0.369000000    -3.969000000    -3.732000000
O     7.099000000     0.078000000     4.288000000
H     7.473000000    -0.574000000     4.881000000
H     6.177000000     0.130000000     4.541000000
O    -1.919000000     0.870000000    -7.299000000
H    -1.828000000     0.197000000    -7.973000000
H    -2.849000000     0.858000000    -7.072000000
O     6.575000000     1.922000000     0.099000000
H     5.914000000     1.442000000     0.597000000
H     7.143000000     2.310000000     0.766000000
O    -1.865000000     3.690000000    -4.135000000
H    -2.242000000     4.432000000    -4.607000000
H    -2.404000000     3.607000000    -3.349000000
O    -2.488000000     4.023000000     1.377000000
H    -2.460000000     3.071000000     1.277000000
H    -1.579000000     4.302000000     1.267000000
O     4.090000000     4.674000000     1.030000000
H     4.291000000     4.119000000     1.784000000
H     3.197000000     4.432000000     0.786000000
O    -6.710000000    -0.245000000    -3.664000000
H    -7.470000000    -0.348000000    -4.236000000
H    -6.035000000    -0.795000000    -4.062000000
O     0.462000000     2.647000000    -5.289000000
H    -0.287000000     3.201000000    -5.069000000
H     0.189000000     1.765000000    -5.037000000
O    -2.752000000     5.443000000    -1.144000000
H    -2.601000000     5.027000000    -0.295000000
H    -2.469000000     6.349000000    -1.021000000
O    -1.438000000     0.822000000     3.665000000
H    -1.794000000     0.691000000     4.544000000
H    -0.891000000     1.604000000     3.742000000
O     2.784000000     1.083000000    -1.366000000
H     2.719000000     1.996000000    -1.083000000
H     1.929000000     0.707000000    -1.158000000
O    -1.541000000    -2.594000000     4.172000000
H    -1.477000000    -1.641000000     4.100000000
H    -0.632000000    -2.893000000     4.202000000
O     2.609000000     4.027000000    -1.362000000
H     3.113000000     4.727000000    -1.778000000
H     1.717000000     4.150000000    -1.685000000
O    -4.121000000     1.266000000     1.722000000
H    -4.705000000     0.643000000     2.155000000
H    -3.446000000     0.720000000     1.318000000
O    -2.367000000    -6.078000000    -2.156000000
H    -1.819000000    -5.344000000    -2.434000000
H    -2.349000000    -6.684000000    -2.897000000
O     3.889000000    -3.004000000     6.137000000
H     4.429000000    -2.752000000     6.886000000
H     3.160000000    -3.492000000     6.521000000
O     4.108000000     2.692000000     2.877000000
H     3.799000000     1.795000000     2.750000000
H     4.853000000     2.607000000     3.472000000
O     0.305000000    -0.736000000     7.017000000
H     0.714000000    -0.445000000     6.202000000
H     0.939000000    -0.508000000     7.697000000
O    -4.667000000    -1.363000000    -5.142000000
H    -3.862000000    -1.750000000    -4.798000000
H    -4.651000000    -1.567000000    -6.077000000
O     4.304000000    -0.491000000     4.795000000
H     4.141000000    -1.345000000     5.194000000
H     3.661000000    -0.430000000     4.089000000
O    -5.887000000     2.543000000     0.034000000
H    -6.469000000     1.853000000    -0.285000000
H    -5.269000000     2.089000000     0.607000000
O    -5.449000000     2.955000000    -5.185000000
H    -5.219000000     3.468000000    -4.410000000
H    -6.088000000     2.316000000    -4.869000000
O    -0.486000000     0.113000000    -5.296000000
H    -0.897000000     0.423000000    -6.103000000
H    -0.981000000    -0.672000000    -5.061000000
O     5.169000000    -4.547000000     4.424000000
H     4.759000000    -3.959000000     5.057000000
H     4.639000000    -4.455000000     3.632000000
O     0.352000000     2.707000000     4.436000000
H     0.437000000     3.295000000     3.685000000
H     0.678000000     3.216000000     5.177000000
O    -2.063000000    -2.521000000    -5.091000000
H    -1.180000000    -2.840000000    -4.906000000
H    -2.528000000    -3.286000000    -5.430000000
O     1.166000000    -7.332000000    -0.009000000
H     0.319000000    -6.898000000    -0.117000000
H     1.745000000    -6.647000000     0.325000000
O    -7.407000000    -0.926000000    -1.038000000
H    -7.036000000    -0.744000000    -1.902000000
H    -6.667000000    -0.838000000    -0.437000000
O     4.335000000    -3.373000000     2.086000000
H     5.060000000    -2.779000000     1.887000000
H     3.571000000    -2.801000000     2.160000000
O     0.169000000     4.269000000    -2.195000000
H    -0.505000000     3.904000000    -2.768000000
H     0.128000000     5.213000000    -2.349000000
O     4.178000000     1.285000000     6.634000000
H     3.841000000     0.792000000     7.383000000
H     3.999000000     0.725000000     5.879000000
O     2.117000000    -6.132000000    -3.101000000
H     2.665000000    -5.478000000    -3.536000000
H     1.631000000    -5.636000000    -2.443000000
O     0.103000000    -5.910000000     3.886000000
H    -0.259000000    -6.010000000     4.766000000
H     0.437000000    -5.013000000     3.865000000
O     3.713000000    -5.927000000     1.282000000
H     4.159000000    -5.091000000     1.149000000
H     3.458000000    -5.919000000     2.204000000
O    -0.174000000     4.652000000     0.763000000
H    -0.037000000     4.747000000    -0.179000000
H     0.164000000     5.466000000     1.138000000
O    -1.237000000    -6.351000000     0.854000000
H    -2.112000000    -6.739000000     0.877000000
H    -0.917000000    -6.429000000     1.753000000
O     0.671000000    -4.208000000    -1.809000000
H     0.952000000    -3.325000000    -2.051000000
H     0.140000000    -4.082000000    -1.023000000
O    -4.948000000    -1.027000000     0.163000000
H    -3.997000000    -0.974000000     0.259000000
H    -5.202000000    -1.775000000     0.703000000
O     4.887000000    -0.747000000    -1.318000000
H     5.207000000    -0.669000000    -0.419000000
H     4.449000000     0.086000000    -1.490000000
O     2.155000000    -0.473000000    -5.385000000
H     2.086000000    -0.556000000    -6.336000000
H     1.274000000    -0.227000000    -5.101000000
O    -2.667000000    -0.990000000     1.608000000
H    -1.740000000    -0.909000000     1.385000000
H    -2.685000000    -0.982000000     2.565000000
O     1.593000000     0.279000000     5.015000000
H     1.163000000     1.134000000     5.054000000
H     2.145000000     0.324000000     4.234000000
O     1.125000000    -3.225000000     4.208000000
H     1.638000000    -3.341000000     5.008000000
H     1.692000000    -2.712000000     3.633000000
O     4.821000000    -4.028000000    -2.151000000
H     3.924000000    -3.694000000    -2.169000000
H     5.344000000    -3.294000000    -1.828000000
O    -4.613000000     3.914000000    -2.492000000
H    -4.885000000     3.390000000    -1.739000000
H    -3.809000000     4.348000000    -2.205000000
O     2.653000000    -2.058000000    -2.418000000
H     3.418000000    -1.562000000    -2.127000000
H     2.477000000    -1.730000000    -3.300000000
