144
-2816.37971
O     5.195000000    -0.013000000     2.096000000
H     5.251000000    -0.231000000     3.026000000
H     4.518000000     0.663000000     2.049000000
O     0.815000000    -2.136000000    -4.269000000
H     1.356000000    -2.478000000    -4.981000000
H     1.444000000    -1.791000000    -3.635000000
O     5.778000000     0.115000000     4.817000000
H     6.430000000    -0.216000000     5.434000000
H     4.998000000    -0.414000000     4.985000000
O    -3.814000000    -0.871000000    -5.673000000
H    -3.721000000    -0.970000000    -6.621000000
H    -2.923000000    -0.960000000    -5.335000000
O     7.598000000     0.943000000     1.175000000
H     6.761000000     0.834000000     1.627000000
H     7.726000000     1.891000000     1.134000000
O    -3.305000000    -3.379000000     3.099000000
H    -3.690000000    -4.255000000     3.095000000
H    -3.135000000    -3.196000000     4.023000000
O    -1.021000000     5.358000000     0.616000000
H    -0.236000000     4.956000000     0.988000000
H    -0.696000000     5.888000000    -0.112000000
O    -5.540000000    -3.204000000     1.152000000
H    -4.890000000    -3.044000000     1.836000000
H    -6.331000000    -2.765000000     1.466000000
O     5.824000000     3.755000000     0.275000000
H     5.355000000     3.244000000     0.935000000
H     6.056000000     4.569000000     0.721000000
O    -5.428000000     1.491000000    -5.208000000
H    -5.505000000     1.323000000    -6.147000000
H    -4.814000000     0.827000000    -4.895000000
O    -0.593000000     3.485000000    -5.229000000
H    -1.544000000     3.465000000    -5.125000000
H    -0.438000000     3.103000000    -6.092000000
O    -2.845000000     4.506000000    -1.710000000
H    -3.209000000     3.899000000    -1.065000000
H    -1.924000000     4.592000000    -1.464000000
O    -1.657000000     1.527000000     2.402000000
H    -1.166000000     1.191000000     1.653000000
H    -1.410000000     0.954000000     3.128000000
O     1.247000000     4.607000000     2.496000000
H     1.853000000     4.144000000     1.918000000
H     0.947000000     3.940000000     3.113000000
O     3.018000000     0.236000000    -1.212000000
H     2.709000000     0.708000000    -1.985000000
H     2.373000000     0.437000000    -0.534000000
O    -0.691000000    -0.071000000     4.452000000
H    -1.288000000     0.058000000     5.189000000
H    -0.415000000    -0.985000000     4.525000000
O     2.103000000     1.814000000    -3.768000000
H     1.677000000     1.733000000    -4.622000000
H     1.926000000     2.715000000    -3.497000000
O    -2.482000000     4.158000000     2.570000000
H    -2.151000000     4.464000000     1.726000000
H    -2.410000000     3.204000000     2.524000000
O     3.148000000    -3.614000000     6.339000000
H     3.546000000    -3.344000000     7.166000000
H     3.204000000    -4.569000000     6.347000000
O    -6.070000000     0.579000000    -2.192000000
H    -5.982000000     0.515000000    -3.143000000
H    -6.120000000    -0.330000000    -1.895000000
O     4.254000000     2.652000000     2.333000000
H     3.477000000     2.118000000     2.501000000
H     4.342000000     3.198000000     3.115000000
O     0.900000000     0.036000000     7.292000000
H     1.415000000     0.567000000     6.685000000
H     1.216000000     0.291000000     8.159000000
O    -3.994000000    -3.797000000    -5.274000000
H    -4.271000000    -2.883000000    -5.205000000
H    -3.038000000    -3.756000000    -5.308000000
O     4.232000000    -2.225000000     4.050000000
H     3.878000000    -2.430000000     4.915000000
H     3.525000000    -1.757000000     3.607000000
O    -4.348000000     1.743000000    -0.423000000
H    -4.087000000     0.946000000     0.039000000
H    -4.959000000     1.441000000    -1.095000000
O     0.805000000     0.802000000    -6.798000000
H    -0.032000000     1.067000000    -7.179000000
H     0.672000000    -0.109000000    -6.537000000
O    -3.005000000    -3.464000000    -2.206000000
H    -2.764000000    -4.265000000    -1.741000000
H    -2.240000000    -3.260000000    -2.744000000
O     0.252000000     2.979000000     4.330000000
H    -0.542000000     2.453000000     4.239000000
H     0.074000000     3.556000000     5.072000000
O    -1.494000000    -3.155000000    -5.707000000
H    -0.783000000    -2.962000000    -5.096000000
H    -1.311000000    -2.605000000    -6.469000000
O    -1.856000000    -5.585000000    -0.654000000
H    -1.550000000    -6.472000000    -0.466000000
H    -1.426000000    -5.039000000     0.005000000
O     2.496000000    -3.921000000     2.009000000
H     2.888000000    -3.664000000     1.175000000
H     2.444000000    -3.107000000     2.510000000
O     2.838000000     4.456000000    -3.048000000
H     2.243000000     4.748000000    -3.738000000
H     3.711000000     4.677000000    -3.374000000
O     4.360000000     2.458000000     6.899000000
H     4.643000000     2.011000000     7.696000000
H     3.878000000     1.791000000     6.409000000
O    -0.592000000    -2.210000000     7.193000000
H    -0.050000000    -1.425000000     7.268000000
H    -0.464000000    -2.505000000     6.291000000
O     2.911000000    -6.337000000     1.083000000
H     2.845000000    -5.567000000     1.648000000
H     2.870000000    -7.080000000     1.686000000
O     2.934000000     4.389000000    -0.125000000
H     3.694000000     3.832000000     0.046000000
H     2.845000000     4.387000000    -1.078000000
O    -0.008000000    -5.175000000     1.607000000
H    -0.248000000    -5.107000000     2.531000000
H     0.801000000    -4.669000000     1.532000000
O     1.952000000    -5.735000000    -1.328000000
H     2.393000000    -5.933000000    -0.502000000
H     1.625000000    -4.842000000    -1.216000000
O    -5.527000000    -2.291000000    -1.368000000
H    -5.784000000    -2.630000000    -0.510000000
H    -4.583000000    -2.443000000    -1.413000000
O     4.792000000    -2.463000000     0.114000000
H     4.887000000    -1.634000000     0.583000000
H     5.244000000    -2.321000000    -0.718000000
O    -0.229000000    -5.162000000     4.503000000
H    -0.850000000    -5.235000000     5.227000000
H     0.030000000    -4.241000000     4.501000000
O    -3.434000000    -0.770000000     1.361000000
H    -2.530000000    -0.528000000     1.564000000
H    -3.568000000    -1.601000000     1.816000000
O     2.313000000     1.458000000     5.294000000
H     1.764000000     2.242000000     5.268000000
H     2.149000000     1.024000000     4.456000000
O     0.899000000    -2.669000000     5.004000000
H     1.678000000    -3.119000000     5.331000000
H     1.232000000    -2.065000000     4.341000000
O    -3.174000000     3.531000000    -4.496000000
H    -3.387000000     3.920000000    -3.648000000
H    -3.979000000     3.089000000    -4.765000000
O     4.587000000     3.966000000     4.685000000
H     4.414000000     3.465000000     5.481000000
H     4.869000000     4.825000000     4.999000000
O    -4.671000000    -5.439000000     0.260000000
H    -5.169000000    -4.622000000     0.246000000
H    -3.763000000    -5.165000000     0.389000000
O     2.112000000    -2.851000000    -0.698000000
H     3.008000000    -2.514000000    -0.671000000
H     1.563000000    -2.087000000    -0.518000000
