144
-2831.64538
O     1.827000000    -0.774000000     4.477000000
H     1.887000000    -0.363000000     5.340000000
H     0.968000000    -1.197000000     4.473000000
O     3.967000000     0.531000000     3.375000000
H     3.637000000     1.415000000     3.215000000
H     3.185000000    -0.020000000     3.377000000
O    -5.358000000     3.057000000    -0.258000000
H    -5.588000000     2.623000000    -1.080000000
H    -4.754000000     2.451000000     0.171000000
O    -0.636000000    -1.959000000     4.449000000
H    -0.809000000    -2.039000000     3.511000000
H    -1.223000000    -2.595000000     4.856000000
O     7.142000000    -2.560000000     2.323000000
H     7.410000000    -3.427000000     2.020000000
H     6.223000000    -2.490000000     2.065000000
O     3.281000000     3.043000000     3.494000000
H     3.166000000     3.251000000     4.421000000
H     2.677000000     3.631000000     3.040000000
O     1.387000000     0.729000000    -3.751000000
H     2.035000000     1.393000000    -3.984000000
H     0.552000000     1.198000000    -3.752000000
O    -3.829000000    -0.246000000    -4.230000000
H    -3.922000000    -0.017000000    -5.155000000
H    -2.975000000    -0.676000000    -4.175000000
O    -0.924000000     6.884000000     0.471000000
H    -0.699000000     5.955000000     0.414000000
H    -0.983000000     7.059000000     1.410000000
O     4.681000000     1.236000000    -1.722000000
H     4.563000000     2.177000000    -1.592000000
H     4.834000000     0.890000000    -0.843000000
O     1.593000000    -1.342000000    -5.128000000
H     1.397000000    -0.573000000    -4.593000000
H     2.491000000    -1.575000000    -4.893000000
O    -3.494000000    -3.036000000    -0.608000000
H    -2.736000000    -3.609000000    -0.722000000
H    -3.621000000    -2.633000000    -1.467000000
O    -5.514000000     0.797000000     5.946000000
H    -6.432000000     0.526000000     5.949000000
H    -5.294000000     0.884000000     5.018000000
O     2.054000000     2.865000000    -0.791000000
H     2.292000000     1.944000000    -0.686000000
H     2.805000000     3.258000000    -1.235000000
O    -2.832000000     4.059000000     3.699000000
H    -2.594000000     3.433000000     3.015000000
H    -3.596000000     4.517000000     3.348000000
O    -2.225000000     2.905000000    -1.771000000
H    -1.960000000     2.123000000    -2.254000000
H    -2.858000000     3.338000000    -2.344000000
O    -0.375000000    -5.496000000     2.380000000
H    -0.480000000    -4.596000000     2.072000000
H    -1.067000000    -5.984000000     1.933000000
O     1.575000000     4.248000000     1.909000000
H     0.656000000     4.087000000     1.692000000
H     2.056000000     3.979000000     1.126000000
O    -6.348000000     3.451000000     3.517000000
H    -6.034000000     2.550000000     3.588000000
H    -6.150000000     3.841000000     4.369000000
O     4.442000000    -3.283000000     1.355000000
H     3.817000000    -3.949000000     1.067000000
H     4.667000000    -2.806000000     0.556000000
O    -4.380000000    -1.472000000     1.375000000
H    -4.277000000    -0.637000000     0.917000000
H    -4.465000000    -2.120000000     0.675000000
O    -5.471000000     0.659000000    -2.037000000
H    -5.010000000     0.636000000    -1.198000000
H    -4.774000000     0.653000000    -2.693000000
O     4.928000000     3.721000000     1.002000000
H     4.612000000     4.388000000     1.611000000
H     5.154000000     4.208000000     0.209000000
O    -5.145000000     5.122000000     1.939000000
H    -5.321000000     4.643000000     1.129000000
H    -5.721000000     4.717000000     2.587000000
O    -1.150000000    -2.408000000     1.663000000
H    -2.082000000    -2.439000000     1.446000000
H    -0.782000000    -1.773000000     1.048000000
O     5.808000000    -1.561000000    -0.327000000
H     5.603000000    -0.739000000     0.118000000
H     6.758000000    -1.647000000    -0.245000000
O    -2.615000000    -0.141000000     5.185000000
H    -2.007000000    -0.336000000     4.472000000
H    -2.408000000     0.758000000     5.438000000
O    -7.737000000     0.870000000     3.099000000
H    -7.134000000     0.628000000     3.802000000
H    -7.521000000     0.273000000     2.382000000
O     5.367000000     0.578000000     1.053000000
H     5.777000000     1.423000000     1.240000000
H     4.976000000     0.313000000     1.886000000
O     6.277000000     3.044000000     3.373000000
H     6.821000000     2.952000000     2.591000000
H     5.407000000     2.757000000     3.095000000
O    -3.113000000     5.856000000    -1.065000000
H    -3.473000000     5.000000000    -0.831000000
H    -2.276000000     5.898000000    -0.602000000
O     2.366000000    -5.020000000    -3.405000000
H     2.812000000    -5.826000000    -3.145000000
H     1.590000000    -5.318000000    -3.880000000
O    -0.974000000     2.166000000    -4.439000000
H    -1.717000000     1.859000000    -4.957000000
H    -0.282000000     2.323000000    -5.082000000
O    -4.560000000    -2.952000000    -3.280000000
H    -3.929000000    -3.255000000    -3.933000000
H    -4.910000000    -2.139000000    -3.645000000
O    -4.494000000     1.277000000     3.512000000
H    -4.327000000     0.342000000     3.393000000
H    -3.887000000     1.707000000     2.910000000
O    -2.932000000     2.611000000     5.830000000
H    -2.854000000     3.300000000     5.170000000
H    -3.817000000     2.267000000     5.714000000
O     3.255000000    -3.461000000     3.790000000
H     3.729000000    -3.406000000     2.961000000
H     2.997000000    -2.559000000     3.979000000
O     0.228000000    -3.412000000    -6.127000000
H     0.876000000    -2.748000000    -5.894000000
H    -0.175000000    -3.082000000    -6.930000000
O     3.984000000    -0.533000000    -4.066000000
H     4.043000000    -0.094000000    -3.218000000
H     4.257000000    -1.433000000    -3.891000000
O    -0.415000000     5.190000000     4.075000000
H    -0.606000000     6.110000000     3.892000000
H    -1.239000000     4.735000000     3.899000000
O     4.548000000    -3.130000000    -3.837000000
H     3.848000000    -3.687000000    -3.496000000
H     5.302000000    -3.325000000    -3.281000000
O     2.760000000    -5.666000000     0.477000000
H     2.759000000    -6.242000000     1.241000000
H     2.002000000    -5.946000000    -0.036000000
O     4.808000000    -5.316000000    -1.393000000
H     4.584000000    -6.127000000    -1.849000000
H     4.209000000    -5.286000000    -0.648000000
O     0.013000000     2.787000000     6.253000000
H    -0.874000000     2.500000000     6.037000000
H     0.154000000     3.561000000     5.708000000
O    -1.348000000    -1.713000000    -4.654000000
H    -0.419000000    -1.493000000    -4.717000000
H    -1.444000000    -2.502000000    -5.187000000
O    -5.530000000    -2.293000000     3.691000000
H    -5.228000000    -2.061000000     2.812000000
H    -4.726000000    -2.385000000     4.203000000
O    -1.519000000    -4.549000000    -1.646000000
H    -0.812000000    -4.648000000    -1.009000000
H    -1.101000000    -4.147000000    -2.407000000
O    -0.322000000     4.187000000    -0.229000000
H    -1.032000000     3.779000000    -0.725000000
H     0.459000000     3.692000000    -0.477000000
