144
-2804.11262
O    -1.931000000    -0.947000000    -5.017000000
H    -1.934000000    -1.624000000    -5.694000000
H    -2.425000000    -1.331000000    -4.292000000
O     1.729000000    -4.227000000     5.764000000
H     1.738000000    -4.175000000     6.720000000
H     2.228000000    -5.019000000     5.563000000
O     0.128000000    -3.786000000    -3.009000000
H    -0.236000000    -4.652000000    -3.191000000
H     0.150000000    -3.732000000    -2.054000000
O    -0.510000000     5.836000000    -3.768000000
H     0.202000000     6.380000000    -3.431000000
H    -1.107000000     6.456000000    -4.186000000
O    -4.867000000     2.494000000    -1.409000000
H    -4.482000000     1.747000000    -1.867000000
H    -4.135000000     2.886000000    -0.932000000
O    -3.788000000     0.110000000     4.314000000
H    -3.064000000     0.116000000     3.688000000
H    -3.436000000    -0.340000000     5.083000000
O     4.499000000     1.846000000    -2.730000000
H     4.156000000     1.314000000    -2.013000000
H     5.312000000     1.411000000    -2.985000000
O    -2.318000000     4.669000000    -1.943000000
H    -1.849000000     4.696000000    -2.777000000
H    -3.064000000     5.255000000    -2.069000000
O    -4.196000000     3.938000000     1.732000000
H    -4.273000000     4.537000000     2.475000000
H    -3.375000000     3.471000000     1.886000000
O    -1.286000000     1.309000000     6.637000000
H    -2.064000000     1.406000000     7.187000000
H    -1.045000000     0.387000000     6.723000000
O     0.261000000    -1.538000000     6.022000000
H    -0.036000000    -2.439000000     6.149000000
H     0.491000000    -1.490000000     5.094000000
O     4.257000000    -2.403000000     3.931000000
H     3.403000000    -2.827000000     4.016000000
H     4.631000000    -2.441000000     4.811000000
O     0.876000000     0.717000000    -6.008000000
H     1.480000000     0.735000000    -5.266000000
H     0.355000000    -0.074000000    -5.873000000
O    -1.255000000     3.830000000     4.669000000
H    -1.308000000     3.235000000     5.416000000
H    -0.316000000     3.941000000     4.517000000
O    -2.274000000    -3.829000000     1.939000000
H    -2.859000000    -3.367000000     2.540000000
H    -1.417000000    -3.426000000     2.082000000
O     4.903000000     4.112000000     2.478000000
H     5.257000000     3.236000000     2.323000000
H     4.572000000     4.082000000     3.375000000
O    -0.847000000    -6.852000000     5.663000000
H    -0.817000000    -5.924000000     5.430000000
H    -0.312000000    -6.918000000     6.453000000
O    -1.380000000     5.566000000     2.788000000
H    -1.267000000     5.023000000     2.008000000
H    -1.327000000     4.950000000     3.519000000
O    -1.379000000    -3.815000000     7.085000000
H    -1.802000000    -4.469000000     7.640000000
H    -1.564000000    -4.104000000     6.191000000
O     1.709000000    -4.769000000     1.529000000
H     1.053000000    -5.466000000     1.536000000
H     1.207000000    -3.967000000     1.670000000
O     2.710000000     4.043000000     0.823000000
H     3.604000000     4.293000000     1.058000000
H     2.610000000     4.337000000    -0.083000000
O    -0.627000000    -4.551000000     4.385000000
H    -0.597000000    -3.838000000     3.748000000
H     0.234000000    -4.536000000     4.802000000
O    -2.534000000    -2.586000000    -2.973000000
H    -3.137000000    -3.324000000    -3.060000000
H    -1.669000000    -2.962000000    -3.137000000
O    -0.789000000     4.243000000     0.178000000
H     0.078000000     4.440000000    -0.177000000
H    -1.390000000     4.422000000    -0.546000000
O    -3.127000000    -5.837000000     0.386000000
H    -2.883000000    -5.164000000     1.020000000
H    -3.891000000    -5.477000000    -0.065000000
O    -1.910000000     0.665000000    -7.514000000
H    -1.258000000     0.027000000    -7.805000000
H    -2.261000000     0.295000000    -6.704000000
O     2.666000000    -0.780000000     6.792000000
H     3.203000000    -1.572000000     6.807000000
H     1.790000000    -1.089000000     6.560000000
O     3.182000000     0.073000000    -0.736000000
H     2.359000000     0.411000000    -0.381000000
H     3.246000000    -0.815000000    -0.385000000
O     5.152000000     0.556000000     6.176000000
H     4.696000000    -0.271000000     6.021000000
H     5.348000000     0.549000000     7.113000000
O     3.473000000    -2.554000000     0.294000000
H     3.304000000    -3.138000000    -0.445000000
H     3.240000000    -3.070000000     1.066000000
O     2.279000000     0.727000000     4.438000000
H     2.574000000     0.251000000     5.214000000
H     1.733000000     0.099000000     3.966000000
O     3.691000000     4.818000000    -2.279000000
H     4.060000000     3.939000000    -2.362000000
H     3.016000000     4.860000000    -2.956000000
O     3.292000000    -5.053000000    -0.563000000
H     3.119000000    -5.776000000    -1.165000000
H     2.682000000    -5.193000000     0.161000000
O     3.597000000     2.166000000    -5.259000000
H     3.863000000     1.834000000    -4.402000000
H     3.338000000     3.073000000    -5.094000000
O    -4.852000000    -3.320000000     0.566000000
H    -5.326000000    -2.651000000     0.071000000
H    -4.886000000    -3.015000000     1.473000000
O     2.121000000     4.575000000    -4.662000000
H     1.174000000     4.579000000    -4.528000000
H     2.238000000     4.905000000    -5.553000000
O     1.061000000    -2.219000000    -5.375000000
H     0.887000000    -2.878000000    -4.703000000
H     1.600000000    -1.563000000    -4.933000000
O    -3.168000000     1.673000000    -4.982000000
H    -2.949000000     0.745000000    -4.889000000
H    -2.322000000     2.109000000    -5.084000000
O    -1.084000000     0.653000000     4.064000000
H    -0.817000000     1.009000000     4.911000000
H    -0.427000000    -0.015000000     3.867000000
O     2.010000000    -0.402000000    -3.537000000
H     2.869000000    -0.820000000    -3.596000000
H     1.759000000    -0.499000000    -2.619000000
O     1.386000000     6.707000000    -0.407000000
H     1.673000000     6.944000000    -1.289000000
H     0.462000000     6.956000000    -0.382000000
O     3.943000000     2.932000000     5.038000000
H     4.227000000     2.025000000     5.145000000
H     2.987000000     2.884000000     5.019000000
O     1.272000000     3.535000000     3.549000000
H     1.628000000     3.961000000     2.769000000
H     1.712000000     2.685000000     3.579000000
O    -3.091000000     0.562000000     0.023000000
H    -2.961000000     0.994000000     0.867000000
H    -2.205000000     0.412000000    -0.307000000
O    -4.461000000    -1.119000000    -1.823000000
H    -3.832000000    -1.839000000    -1.860000000
H    -4.097000000    -0.516000000    -1.174000000
O    -0.872000000     2.910000000    -6.619000000
H    -0.255000000     2.215000000    -6.389000000
H    -1.510000000     2.484000000    -7.191000000
O    -1.969000000     2.302000000     1.982000000
H    -1.323000000     2.746000000     1.433000000
H    -1.457000000     1.919000000     2.694000000
O     0.034000000    -6.789000000     2.302000000
H     0.262000000    -7.013000000     3.205000000
H    -0.697000000    -6.177000000     2.385000000
