144
-2796.83963
O    -3.196000000    -2.067000000     2.276000000
H    -2.401000000    -1.598000000     2.526000000
H    -3.867000000    -1.388000000     2.217000000
O    -3.143000000     1.893000000    -3.833000000
H    -3.086000000     2.730000000    -3.372000000
H    -2.271000000     1.765000000    -4.205000000
O    -0.530000000    -1.442000000    -6.624000000
H    -0.440000000    -2.394000000    -6.616000000
H    -0.220000000    -1.179000000    -7.491000000
O    -3.809000000     5.067000000     4.988000000
H    -3.144000000     4.381000000     5.036000000
H    -3.351000000     5.820000000     4.615000000
O     2.093000000    -5.980000000     2.719000000
H     2.243000000    -5.798000000     1.792000000
H     2.264000000    -6.917000000     2.811000000
O    -2.730000000     4.238000000    -2.732000000
H    -2.830000000     3.950000000    -1.824000000
H    -2.108000000     4.964000000    -2.685000000
O    -4.474000000     2.686000000     0.237000000
H    -3.568000000     2.588000000     0.529000000
H    -4.851000000     3.330000000     0.836000000
O     4.005000000    -1.054000000    -0.308000000
H     3.472000000    -0.262000000    -0.251000000
H     4.656000000    -0.955000000     0.387000000
O     5.993000000    -2.259000000    -3.815000000
H     5.203000000    -2.652000000    -3.444000000
H     6.210000000    -2.818000000    -4.562000000
O     2.161000000     0.284000000     4.686000000
H     1.382000000     0.443000000     4.152000000
H     1.930000000     0.619000000     5.552000000
O     2.371000000     5.490000000    -1.321000000
H     2.693000000     5.285000000    -2.199000000
H     2.384000000     6.446000000    -1.278000000
O    -2.490000000     2.968000000     2.500000000
H    -1.885000000     2.277000000     2.773000000
H    -3.324000000     2.730000000     2.905000000
O    -2.439000000    -5.214000000     5.294000000
H    -1.675000000    -4.640000000     5.235000000
H    -3.189000000    -4.624000000     5.217000000
O     3.180000000    -1.941000000     3.362000000
H     3.798000000    -2.389000000     3.941000000
H     2.698000000    -1.349000000     3.939000000
O     1.295000000     2.927000000    -4.681000000
H     0.800000000     3.721000000    -4.883000000
H     0.804000000     2.224000000    -5.105000000
O    -2.078000000    -3.377000000    -3.172000000
H    -2.305000000    -2.746000000    -3.854000000
H    -2.139000000    -2.881000000    -2.356000000
O     2.943000000    -4.801000000    -5.561000000
H     3.215000000    -4.402000000    -4.735000000
H     2.866000000    -4.066000000    -6.169000000
O    -0.397000000     4.269000000     5.323000000
H    -0.551000000     3.477000000     5.839000000
H     0.157000000     4.815000000     5.882000000
O    -4.478000000    -3.247000000     4.887000000
H    -4.012000000    -3.063000000     4.072000000
H    -4.800000000    -2.393000000     5.176000000
O    -2.343000000    -6.863000000     1.000000000
H    -2.386000000    -5.909000000     0.928000000
H    -2.404000000    -7.174000000     0.096000000
O     3.650000000    -3.437000000    -3.005000000
H     3.500000000    -4.313000000    -2.648000000
H     3.259000000    -2.846000000    -2.361000000
O    -1.769000000    -4.176000000     0.758000000
H    -2.064000000    -3.750000000     1.563000000
H    -1.733000000    -3.470000000     0.113000000
O    -1.361000000     6.607000000     2.008000000
H    -1.661000000     7.137000000     1.269000000
H    -0.902000000     5.870000000     1.604000000
O     2.846000000    -2.222000000    -6.493000000
H     2.207000000    -2.270000000    -5.782000000
H     2.430000000    -1.665000000    -7.151000000
O    -0.646000000    -3.210000000     4.992000000
H    -1.009000000    -2.436000000     4.562000000
H     0.290000000    -3.179000000     4.792000000
O    -0.388000000    -1.459000000     8.283000000
H    -0.879000000    -1.323000000     7.473000000
H    -0.988000000    -1.944000000     8.849000000
O     3.731000000     2.035000000    -5.930000000
H     2.886000000     2.239000000    -5.528000000
H     3.506000000     1.653000000    -6.779000000
O     2.290000000    -5.520000000    -2.329000000
H     1.533000000    -5.536000000    -1.743000000
H     2.669000000    -6.396000000    -2.256000000
O     5.934000000     1.367000000    -2.209000000
H     5.104000000     1.826000000    -2.084000000
H     5.916000000     0.660000000    -1.564000000
O     0.937000000    -5.006000000    -0.001000000
H     1.529000000    -4.295000000     0.243000000
H     0.094000000    -4.757000000     0.377000000
O     1.264000000     3.368000000     3.061000000
H     0.828000000     4.022000000     3.607000000
H     0.905000000     2.531000000     3.357000000
O    -4.471000000     1.676000000     5.301000000
H    -4.707000000     2.243000000     6.035000000
H    -4.884000000     2.084000000     4.540000000
O    -0.819000000    -4.220000000    -6.110000000
H    -0.501000000    -4.423000000    -5.230000000
H    -1.758000000    -4.402000000    -6.072000000
O    -1.709000000    -5.789000000    -3.719000000
H    -1.861000000    -4.907000000    -3.381000000
H    -1.254000000    -6.243000000    -3.010000000
O    -2.694000000    -1.891000000    -0.872000000
H    -3.466000000    -1.327000000    -0.820000000
H    -2.088000000    -1.526000000    -0.227000000
O     3.758000000     3.982000000     2.490000000
H     2.864000000     3.663000000     2.360000000
H     3.716000000     4.911000000     2.264000000
O     2.698000000    -3.277000000     1.046000000
H     2.986000000    -2.880000000     1.868000000
H     3.223000000    -2.842000000     0.373000000
O    -2.065000000     4.290000000     0.215000000
H    -2.290000000     3.972000000     1.090000000
H    -1.176000000     4.634000000     0.306000000
O     1.724000000     1.802000000     7.327000000
H     0.812000000     1.929000000     7.066000000
H     1.673000000     1.491000000     8.231000000
O    -4.684000000    -0.822000000     5.932000000
H    -5.215000000    -0.682000000     6.716000000
H    -4.454000000     0.060000000     5.638000000
O     3.683000000     2.424000000    -1.027000000
H     2.803000000     2.777000000    -1.161000000
H     4.119000000     3.072000000    -0.474000000
O    -0.808000000     1.436000000    -5.610000000
H    -1.285000000     1.975000000    -6.242000000
H    -0.891000000     0.544000000    -5.946000000
O    -3.443000000    -1.809000000    -5.864000000
H    -2.679000000    -1.410000000    -6.279000000
H    -3.521000000    -1.358000000    -5.023000000
O    -3.478000000    -0.785000000    -3.512000000
H    -3.290000000     0.153000000    -3.492000000
H    -4.330000000    -0.868000000    -3.083000000
O     1.934000000    -3.108000000     7.200000000
H     1.675000000    -3.773000000     7.838000000
H     1.285000000    -2.412000000     7.302000000
O     0.515000000     4.933000000     1.034000000
H     1.271000000     5.137000000     0.484000000
H     0.817000000     4.226000000     1.605000000
O    -0.866000000     1.686000000     6.268000000
H    -0.872000000     1.541000000     5.322000000
H    -1.490000000     1.046000000     6.612000000
O    -1.894000000    -0.836000000     6.101000000
H    -1.648000000    -0.825000000     5.176000000
H    -2.534000000    -1.544000000     6.170000000
