144
-2791.23265
O     2.090000000    -3.459000000     6.377000000
H     1.752000000    -2.756000000     5.822000000
H     1.564000000    -3.407000000     7.175000000
O    -6.133000000     2.140000000     2.157000000
H    -5.297000000     2.253000000     1.705000000
H    -6.687000000     1.681000000     1.526000000
O     5.489000000     0.881000000    -0.288000000
H     5.519000000     1.821000000    -0.466000000
H     6.132000000     0.748000000     0.409000000
O    -3.813000000     3.081000000     4.590000000
H    -3.868000000     3.450000000     3.708000000
H    -3.692000000     2.142000000     4.449000000
O    -3.566000000     4.643000000     2.297000000
H    -3.062000000     4.086000000     1.704000000
H    -3.900000000     5.345000000     1.739000000
O    -2.116000000    -0.794000000    -2.410000000
H    -1.309000000    -0.644000000    -1.918000000
H    -2.814000000    -0.684000000    -1.764000000
O    -2.111000000     5.821000000    -1.588000000
H    -2.900000000     6.287000000    -1.866000000
H    -1.390000000     6.388000000    -1.860000000
O    -3.749000000     1.299000000     1.027000000
H    -3.290000000     1.979000000     0.534000000
H    -4.039000000     0.675000000     0.361000000
O     4.181000000    -1.417000000    -1.130000000
H     4.576000000    -0.554000000    -1.005000000
H     3.286000000    -1.320000000    -0.806000000
O    -1.216000000     3.854000000    -3.405000000
H    -1.865000000     3.151000000    -3.388000000
H    -1.645000000     4.587000000    -2.964000000
O    -3.259000000     0.606000000     3.511000000
H    -3.514000000     0.973000000     2.664000000
H    -2.700000000    -0.139000000     3.290000000
O     1.003000000    -1.591000000     4.566000000
H     1.561000000    -0.818000000     4.480000000
H     0.177000000    -1.253000000     4.911000000
O     2.795000000    -0.327000000    -5.507000000
H     3.158000000     0.417000000    -5.026000000
H     3.559000000    -0.842000000    -5.764000000
O     3.685000000     1.874000000    -4.214000000
H     3.817000000     2.041000000    -5.147000000
H     3.924000000     2.697000000    -3.788000000
O     1.603000000    -5.983000000    -2.361000000
H     1.148000000    -5.523000000    -1.655000000
H     2.046000000    -6.711000000    -1.926000000
O     0.637000000    -3.839000000    -6.058000000
H     1.501000000    -3.639000000    -6.418000000
H     0.402000000    -3.061000000    -5.552000000
O    -3.059000000     2.040000000    -3.014000000
H    -3.468000000     1.196000000    -2.819000000
H    -3.723000000     2.688000000    -2.777000000
O    -2.185000000    -5.640000000    -0.544000000
H    -1.343000000    -5.229000000    -0.349000000
H    -1.980000000    -6.570000000    -0.645000000
O    -2.301000000     3.408000000    -0.209000000
H    -2.333000000     4.162000000    -0.798000000
H    -1.580000000     2.873000000    -0.544000000
O     0.305000000    -5.048000000     0.539000000
H    -0.261000000    -4.520000000     1.101000000
H     1.160000000    -4.621000000     0.591000000
O     0.336000000    -3.948000000     3.694000000
H     0.805000000    -3.146000000     3.922000000
H    -0.449000000    -3.646000000     3.239000000
O     0.415000000    -1.429000000    -4.838000000
H     1.180000000    -0.942000000    -5.145000000
H    -0.235000000    -0.755000000    -4.640000000
O    -1.736000000    -0.808000000    -7.221000000
H    -1.438000000    -0.475000000    -6.375000000
H    -2.498000000    -1.349000000    -7.011000000
O    -1.028000000    -4.426000000     6.074000000
H    -0.646000000    -4.159000000     5.238000000
H    -1.631000000    -3.718000000     6.299000000
O     2.970000000    -0.307000000     2.896000000
H     3.036000000    -1.250000000     3.049000000
H     2.673000000    -0.231000000     1.989000000
O     1.962000000     4.156000000     3.281000000
H     1.067000000     4.469000000     3.151000000
H     2.184000000     4.428000000     4.172000000
O    -6.478000000    -4.797000000     1.105000000
H    -6.359000000    -5.677000000     0.746000000
H    -5.591000000    -4.446000000     1.176000000
O     2.015000000     3.823000000     0.447000000
H     2.344000000     2.990000000     0.111000000
H     2.021000000     3.718000000     1.398000000
O    -6.040000000    -2.838000000     2.889000000
H    -5.258000000    -3.149000000     3.345000000
H    -6.238000000    -3.528000000     2.256000000
O    -5.853000000     0.480000000     4.401000000
H    -4.906000000     0.553000000     4.276000000
H    -6.229000000     0.897000000     3.626000000
O     2.799000000    -3.993000000     0.282000000
H     3.240000000    -4.828000000     0.123000000
H     3.362000000    -3.541000000     0.910000000
O    -4.615000000    -0.423000000    -1.357000000
H    -5.038000000    -0.634000000    -2.190000000
H    -5.337000000    -0.356000000    -0.733000000
O    -0.948000000    -6.586000000     3.442000000
H    -1.831000000    -6.249000000     3.599000000
H    -0.403000000    -5.803000000     3.369000000
O    -0.001000000     3.350000000    -5.652000000
H    -0.542000000     3.434000000    -4.867000000
H     0.899000000     3.373000000    -5.326000000
O     4.911000000     4.336000000    -2.990000000
H     5.513000000     4.590000000    -3.689000000
H     5.464000000     3.888000000    -2.349000000
O     2.920000000     6.605000000    -2.425000000
H     2.253000000     6.682000000    -3.108000000
H     3.450000000     5.853000000    -2.691000000
O     3.841000000    -3.657000000    -3.000000000
H     3.815000000    -2.816000000    -2.544000000
H     2.937000000    -3.972000000    -2.974000000
O    -3.191000000    -2.808000000     6.560000000
H    -3.731000000    -2.885000000     5.774000000
H    -3.666000000    -3.304000000     7.227000000
O     1.000000000     6.400000000    -0.274000000
H     1.087000000     5.501000000     0.042000000
H     1.665000000     6.480000000    -0.957000000
O    -0.548000000     3.552000000     6.094000000
H    -1.220000000     4.227000000     5.997000000
H    -0.890000000     2.802000000     5.607000000
O    -0.739000000     5.335000000     3.319000000
H    -1.353000000     5.522000000     2.609000000
H    -1.245000000     5.478000000     4.119000000
O    -3.737000000    -4.331000000     1.283000000
H    -2.948000000    -3.803000000     1.407000000
H    -3.517000000    -4.925000000     0.565000000
O    -1.314000000    -0.946000000     5.684000000
H    -1.541000000    -1.302000000     4.824000000
H    -2.100000000    -1.081000000     6.214000000
O     0.433000000    -7.907000000     1.399000000
H    -0.070000000    -7.454000000     2.076000000
H     0.349000000    -7.351000000     0.625000000
O    -1.531000000     0.561000000    -4.849000000
H    -1.843000000     0.061000000    -4.095000000
H    -1.624000000     1.476000000    -4.585000000
O    -3.559000000    -3.821000000     3.847000000
H    -2.942000000    -3.092000000     3.773000000
H    -3.512000000    -4.262000000     2.999000000
O    -6.421000000    -0.779000000     0.836000000
H    -7.252000000    -0.475000000     1.201000000
H    -6.145000000    -1.483000000     1.422000000
O     2.256000000    -5.982000000     3.483000000
H     1.890000000    -6.654000000     4.058000000
H     1.721000000    -5.206000000     3.651000000
