144
-2802.76374
O    -1.023000000    -4.863000000     6.813000000
H    -1.062000000    -5.818000000     6.857000000
H    -1.219000000    -4.657000000     5.899000000
O    -1.988000000    -4.611000000    -3.314000000
H    -1.141000000    -4.402000000    -2.918000000
H    -2.631000000    -4.355000000    -2.652000000
O     4.005000000     1.065000000    -3.979000000
H     3.251000000     0.507000000    -4.172000000
H     3.776000000     1.501000000    -3.158000000
O     4.033000000    -0.340000000     0.959000000
H     3.794000000    -0.873000000     0.201000000
H     3.780000000     0.551000000     0.715000000
O    -1.613000000    -0.774000000    -2.664000000
H    -1.058000000    -0.383000000    -1.989000000
H    -2.153000000    -0.050000000    -2.979000000
O    -4.579000000     1.824000000     2.088000000
H    -4.157000000     2.669000000     2.240000000
H    -4.580000000     1.725000000     1.135000000
O     3.425000000    -4.083000000     0.986000000
H     2.559000000    -4.333000000     1.308000000
H     3.248000000    -3.543000000     0.215000000
O     2.630000000    -1.267000000    -4.329000000
H     1.719000000    -1.369000000    -4.606000000
H     3.143000000    -1.534000000    -5.092000000
O     2.734000000    -1.652000000     2.919000000
H     3.065000000    -1.367000000     2.067000000
H     2.010000000    -1.055000000     3.107000000
O     3.737000000     2.380000000     0.392000000
H     3.103000000     2.940000000     0.840000000
H     3.987000000     2.877000000    -0.387000000
O    -3.600000000     1.109000000    -3.299000000
H    -4.221000000     0.499000000    -3.698000000
H    -4.014000000     1.367000000    -2.475000000
O    -3.993000000    -0.846000000     3.506000000
H    -4.219000000    -0.001000000     3.118000000
H    -3.036000000    -0.856000000     3.517000000
O     1.935000000    -0.758000000     7.219000000
H     2.573000000    -1.301000000     6.758000000
H     1.153000000    -0.785000000     6.667000000
O     0.301000000     0.940000000    -6.726000000
H    -0.323000000     1.142000000    -7.422000000
H     0.176000000     1.637000000    -6.082000000
O     0.012000000     6.323000000    -0.561000000
H    -0.652000000     6.330000000    -1.251000000
H    -0.093000000     7.166000000    -0.119000000
O     2.607000000    -5.053000000    -2.669000000
H     1.914000000    -5.235000000    -3.304000000
H     2.147000000    -4.941000000    -1.837000000
O     0.750000000     2.905000000    -5.016000000
H     0.176000000     3.659000000    -4.879000000
H     1.624000000     3.282000000    -5.110000000
O     0.351000000    -8.220000000     1.643000000
H     0.303000000    -7.329000000     1.988000000
H     1.257000000    -8.488000000     1.795000000
O    -4.550000000     1.983000000    -0.757000000
H    -5.489000000     1.796000000    -0.751000000
H    -4.496000000     2.930000000    -0.886000000
O    -2.401000000    -2.799000000    -0.985000000
H    -3.283000000    -2.556000000    -1.265000000
H    -1.827000000    -2.178000000    -1.435000000
O    -3.843000000     4.359000000     2.319000000
H    -4.434000000     4.897000000     1.793000000
H    -2.968000000     4.587000000     2.004000000
O     1.185000000    -5.308000000     2.372000000
H     0.495000000    -4.645000000     2.400000000
H     1.719000000    -5.130000000     3.147000000
O    -2.000000000    -4.289000000     4.375000000
H    -1.918000000    -4.998000000     3.737000000
H    -1.542000000    -3.551000000     3.973000000
O    -5.033000000    -5.389000000     4.610000000
H    -4.823000000    -4.710000000     3.969000000
H    -4.881000000    -6.213000000     4.146000000
O     5.703000000    -2.671000000     1.213000000
H     5.894000000    -2.779000000     2.144000000
H     4.814000000    -3.012000000     1.110000000
O     2.525000000     5.189000000    -2.511000000
H     1.987000000     5.843000000    -2.958000000
H     2.153000000     5.133000000    -1.631000000
O     3.854000000    -2.446000000    -1.405000000
H     3.390000000    -2.364000000    -2.238000000
H     4.758000000    -2.638000000    -1.653000000
O     0.632000000     0.341000000     4.362000000
H     0.045000000     1.029000000     4.676000000
H     0.124000000    -0.466000000     4.452000000
O     6.452000000     0.341000000    -3.230000000
H     6.319000000    -0.159000000    -2.425000000
H     5.582000000     0.393000000    -3.626000000
O    -1.283000000     2.612000000     4.470000000
H    -2.237000000     2.662000000     4.424000000
H    -0.999000000     3.522000000     4.553000000
O     2.253000000     3.421000000     3.479000000
H     1.735000000     2.625000000     3.601000000
H     1.976000000     3.759000000     2.627000000
O    -4.792000000    -3.400000000     2.797000000
H    -4.305000000    -2.598000000     2.984000000
H    -4.220000000    -3.896000000     2.212000000
O     1.791000000     4.830000000     0.871000000
H     1.029000000     4.970000000     0.310000000
H     2.325000000     5.615000000     0.751000000
O     0.842000000    -4.897000000    -0.391000000
H    -0.055000000    -4.566000000    -0.430000000
H     1.011000000    -5.024000000     0.542000000
O    -4.506000000     4.544000000    -1.414000000
H    -5.019000000     4.480000000    -2.220000000
H    -4.273000000     5.470000000    -1.352000000
O     4.458000000     3.175000000    -2.002000000
H     5.265000000     3.350000000    -2.484000000
H     3.855000000     3.863000000    -2.286000000
O    -2.425000000     2.983000000    -5.691000000
H    -2.832000000     2.506000000    -4.968000000
H    -2.085000000     3.783000000    -5.289000000
O     2.594000000     1.638000000    -7.760000000
H     2.293000000     2.498000000    -8.054000000
H     2.047000000     1.440000000    -7.000000000
O     6.680000000    -0.391000000    -0.077000000
H     6.512000000     0.302000000     0.562000000
H     6.069000000    -1.088000000     0.160000000
O    -0.770000000     5.064000000    -4.750000000
H    -0.156000000     5.737000000    -4.459000000
H    -1.631000000     5.403000000    -4.507000000
O     3.353000000     3.761000000    -5.078000000
H     3.205000000     4.209000000    -4.245000000
H     3.793000000     2.946000000    -4.838000000
O    -4.541000000    -6.492000000     1.841000000
H    -5.013000000    -6.961000000     1.153000000
H    -3.880000000    -5.982000000     1.374000000
O    -1.401000000     4.973000000     1.966000000
H    -0.994000000     5.305000000     1.166000000
H    -0.748000000     5.126000000     2.649000000
O    -3.849000000    -2.524000000     6.121000000
H    -3.626000000    -3.455000000     6.104000000
H    -4.168000000    -2.338000000     5.237000000
O    -2.718000000    -4.577000000     0.987000000
H    -2.068000000    -4.237000000     1.602000000
H    -2.760000000    -3.918000000     0.295000000
O    -3.662000000    -0.305000000     7.700000000
H    -3.738000000    -1.045000000     7.097000000
H    -4.454000000    -0.350000000     8.235000000
O    -0.494000000    -1.542000000     5.793000000
H    -0.845000000    -1.976000000     5.015000000
H    -1.072000000    -1.821000000     6.503000000
O    -0.070000000    -1.373000000    -4.931000000
H    -0.660000000    -1.354000000    -4.178000000
H    -0.173000000    -0.512000000    -5.337000000
