144
-2804.49548
O    -3.959000000     2.704000000     5.238000000
H    -3.102000000     2.774000000     4.816000000
H    -4.043000000     1.776000000     5.457000000
O    -4.059000000    -2.087000000    -3.093000000
H    -4.208000000    -3.032000000    -3.111000000
H    -3.416000000    -1.959000000    -2.396000000
O    -5.818000000     2.003000000     0.581000000
H    -5.157000000     2.617000000     0.262000000
H    -6.654000000     2.426000000     0.384000000
O    -6.523000000     3.136000000     3.277000000
H    -6.425000000     2.416000000     2.654000000
H    -5.898000000     2.936000000     3.974000000
O     0.816000000     3.498000000    -5.063000000
H     1.652000000     3.358000000    -4.618000000
H     0.987000000     4.216000000    -5.673000000
O    -6.627000000    -2.132000000     2.780000000
H    -6.378000000    -1.374000000     2.252000000
H    -7.341000000    -1.814000000     3.333000000
O    -1.431000000     2.015000000     4.089000000
H    -1.817000000     1.297000000     3.587000000
H    -0.886000000     1.582000000     4.746000000
O     5.005000000    -1.522000000    -5.949000000
H     4.331000000    -0.844000000    -5.979000000
H     4.523000000    -2.344000000    -6.040000000
O     2.383000000    -1.914000000     4.584000000
H     2.095000000    -2.288000000     5.416000000
H     3.119000000    -1.347000000     4.817000000
O     4.760000000     4.685000000    -2.333000000
H     4.684000000     5.486000000    -2.851000000
H     5.677000000     4.664000000    -2.057000000
O     0.100000000     4.451000000     4.866000000
H    -0.572000000     3.777000000     4.958000000
H     0.911000000     4.019000000     5.133000000
O     5.466000000     3.355000000     1.468000000
H     5.638000000     4.268000000     1.238000000
H     4.641000000     3.149000000     1.029000000
O     1.174000000     2.395000000     2.284000000
H     1.568000000     2.422000000     1.412000000
H     0.259000000     2.633000000     2.141000000
O    -1.190000000    -5.346000000    -1.223000000
H    -1.671000000    -4.832000000    -0.573000000
H    -0.523000000    -4.745000000    -1.556000000
O    -2.982000000     1.720000000    -3.388000000
H    -2.689000000     1.602000000    -4.292000000
H    -2.534000000     2.511000000    -3.092000000
O     0.883000000    -7.593000000    -0.557000000
H     0.462000000    -6.734000000    -0.517000000
H     0.235000000    -8.195000000    -0.193000000
O     3.741000000    -4.436000000     0.370000000
H     4.069000000    -3.941000000     1.121000000
H     3.997000000    -3.915000000    -0.391000000
O    -2.224000000    -3.718000000     0.601000000
H    -1.979000000    -3.305000000     1.429000000
H    -2.606000000    -4.558000000     0.856000000
O     3.441000000     0.773000000    -5.968000000
H     2.586000000     0.770000000    -6.398000000
H     3.380000000     1.474000000    -5.318000000
O    -3.557000000     5.147000000     1.334000000
H    -4.452000000     5.442000000     1.168000000
H    -3.353000000     4.572000000     0.596000000
O     1.210000000     0.526000000     4.794000000
H     1.312000000     1.120000000     4.051000000
H     1.436000000    -0.336000000     4.445000000
O    -4.304000000    -3.730000000     6.633000000
H    -4.138000000    -3.448000000     7.533000000
H    -3.538000000    -3.431000000     6.143000000
O     0.453000000    -3.566000000     3.399000000
H    -0.190000000    -2.881000000     3.212000000
H     1.289000000    -3.103000000     3.446000000
O     3.429000000     3.325000000    -0.218000000
H     2.502000000     3.483000000    -0.399000000
H     3.869000000     3.508000000    -1.047000000
O    -0.709000000     1.264000000    -5.069000000
H    -0.233000000     2.090000000    -5.158000000
H    -0.753000000     1.114000000    -4.124000000
O    -1.622000000    -2.104000000    -1.727000000
H    -0.901000000    -1.491000000    -1.581000000
H    -1.704000000    -2.580000000    -0.901000000
O    -4.042000000    -2.832000000     2.997000000
H    -3.600000000    -1.985000000     2.938000000
H    -4.965000000    -2.631000000     2.842000000
O    -5.241000000    -2.941000000     0.141000000
H    -5.487000000    -3.570000000     0.819000000
H    -4.924000000    -2.178000000     0.625000000
O    -4.932000000    -0.340000000     1.742000000
H    -5.176000000     0.404000000     1.192000000
H    -4.057000000    -0.123000000     2.063000000
O     4.651000000    -2.500000000     2.222000000
H     4.658000000    -1.644000000     2.650000000
H     4.803000000    -3.124000000     2.931000000
O    -3.473000000    -0.694000000     7.678000000
H    -4.099000000    -0.100000000     8.092000000
H    -3.536000000    -0.495000000     6.744000000
O     6.027000000    -1.355000000     0.115000000
H     5.645000000    -1.463000000     0.986000000
H     5.447000000    -1.850000000    -0.464000000
O    -1.854000000    -2.779000000     5.353000000
H    -1.819000000    -2.420000000     4.466000000
H    -0.950000000    -2.733000000     5.665000000
O    -4.202000000     0.107000000     5.124000000
H    -3.617000000    -0.299000000     4.485000000
H    -4.925000000    -0.515000000     5.216000000
O     2.114000000    -5.671000000     2.566000000
H     2.301000000    -5.381000000     1.673000000
H     1.453000000    -5.056000000     2.884000000
O    -3.342000000    -6.123000000     1.603000000
H    -3.107000000    -6.120000000     2.530000000
H    -4.297000000    -6.065000000     1.597000000
O    -1.572000000     3.987000000    -2.550000000
H    -0.854000000     4.260000000    -1.979000000
H    -1.597000000     4.653000000    -3.238000000
O    -1.003000000    -6.520000000     5.646000000
H    -1.473000000    -6.348000000     4.830000000
H    -0.356000000    -7.186000000     5.414000000
O    -1.093000000     5.900000000    -4.226000000
H    -0.230000000     5.491000000    -4.162000000
H    -0.922000000     6.765000000    -4.598000000
O     5.038000000    -3.438000000    -1.752000000
H     5.898000000    -3.816000000    -1.935000000
H     4.424000000    -4.000000000    -2.225000000
O     3.508000000     2.921000000    -4.203000000
H     4.072000000     3.335000000    -4.856000000
H     3.756000000     3.334000000    -3.375000000
O    -2.891000000    -5.052000000     4.109000000
H    -2.257000000    -4.580000000     4.649000000
H    -3.459000000    -4.368000000     3.753000000
O    -0.084000000    -0.816000000     7.177000000
H     0.072000000    -0.162000000     6.495000000
H    -0.926000000    -0.568000000     7.559000000
O     0.545000000     4.361000000    -0.607000000
H     1.089000000     5.118000000    -0.824000000
H     0.199000000     4.555000000     0.264000000
O     1.476000000    -3.021000000     6.982000000
H     0.906000000    -2.253000000     7.022000000
H     2.089000000    -2.902000000     7.708000000
O    -0.514000000     4.955000000     1.800000000
H    -1.466000000     4.897000000     1.721000000
H    -0.342000000     4.813000000     2.731000000
O     0.143000000    -0.689000000    -6.729000000
H    -0.098000000    -0.004000000    -6.105000000
H     0.252000000    -0.228000000    -7.561000000
O    -3.216000000     2.966000000    -0.351000000
H    -2.659000000     3.169000000    -1.103000000
H    -3.007000000     2.057000000    -0.137000000
