144
-2819.56625
O     5.420000000    -2.740000000     1.229000000
H     5.643000000    -3.521000000     1.736000000
H     5.083000000    -2.122000000     1.876000000
O    -4.027000000     3.696000000     1.007000000
H    -4.237000000     4.252000000     1.757000000
H    -3.071000000     3.654000000     1.000000000
O     1.073000000     3.173000000    -3.990000000
H     1.140000000     2.942000000    -4.917000000
H     1.977000000     3.323000000    -3.715000000
O    -3.278000000     2.703000000    -4.555000000
H    -3.493000000     2.642000000    -5.486000000
H    -3.660000000     3.535000000    -4.275000000
O    -1.228000000     2.972000000     1.301000000
H    -0.699000000     2.261000000     0.938000000
H    -1.207000000     2.827000000     2.247000000
O    -0.808000000    -1.924000000    -2.966000000
H    -0.099000000    -2.092000000    -3.587000000
H    -1.113000000    -1.043000000    -3.182000000
O    -1.255000000     0.349000000     5.283000000
H    -1.926000000    -0.329000000     5.361000000
H    -1.303000000     0.830000000     6.109000000
O     5.827000000     4.260000000    -0.857000000
H     5.689000000     4.953000000    -0.212000000
H     4.956000000     3.894000000    -1.007000000
O     3.646000000     3.237000000    -2.877000000
H     3.990000000     2.437000000    -3.274000000
H     3.871000000     3.929000000    -3.498000000
O    -0.952000000     2.738000000     4.007000000
H    -1.293000000     1.907000000     4.339000000
H    -0.131000000     2.867000000     4.483000000
O     3.021000000     1.512000000     3.464000000
H     2.632000000     2.038000000     4.163000000
H     2.882000000     2.029000000     2.670000000
O     4.595000000    -3.141000000    -1.286000000
H     4.827000000    -3.025000000    -0.364000000
H     3.658000000    -2.950000000    -1.323000000
O     6.148000000    -0.074000000     4.507000000
H     5.516000000    -0.229000000     3.804000000
H     5.619000000     0.247000000     5.237000000
O     1.201000000    -4.215000000     2.337000000
H     1.429000000    -4.331000000     3.259000000
H     0.250000000    -4.102000000     2.338000000
O    -8.097000000    -3.710000000     2.722000000
H    -8.767000000    -3.187000000     2.283000000
H    -7.293000000    -3.529000000     2.234000000
O    -0.533000000    -0.369000000    -6.312000000
H    -0.882000000     0.188000000    -5.617000000
H     0.400000000    -0.159000000    -6.342000000
O    -1.446000000    -4.129000000     1.312000000
H    -2.083000000    -3.415000000     1.329000000
H    -1.851000000    -4.799000000     0.762000000
O     2.512000000     1.697000000    -5.987000000
H     3.346000000     1.578000000    -5.533000000
H     2.555000000     1.095000000    -6.729000000
O     4.803000000     1.166000000    -4.425000000
H     5.747000000     1.132000000    -4.583000000
H     4.635000000     0.438000000    -3.826000000
O     3.125000000    -1.789000000    -5.632000000
H     3.033000000    -2.739000000    -5.698000000
H     3.814000000    -1.659000000    -4.980000000
O    -1.637000000    -2.701000000     5.159000000
H    -2.420000000    -2.390000000     4.704000000
H    -1.015000000    -1.977000000     5.086000000
O    -0.163000000     4.939000000    -2.237000000
H     0.179000000     4.230000000    -2.781000000
H    -1.049000000     5.088000000    -2.567000000
O    -5.608000000    -2.456000000     1.317000000
H    -5.541000000    -3.315000000     0.899000000
H    -4.762000000    -2.042000000     1.148000000
O     2.558000000    -3.538000000     4.586000000
H     1.909000000    -2.957000000     4.982000000
H     2.864000000    -4.085000000     5.310000000
O    -6.064000000    -2.981000000     4.429000000
H    -6.606000000    -2.632000000     3.721000000
H    -5.202000000    -2.589000000     4.286000000
O    -1.042000000     0.960000000    -4.005000000
H    -0.293000000     1.543000000    -3.881000000
H    -1.791000000     1.549000000    -4.098000000
O    -3.714000000    -1.424000000     3.860000000
H    -3.582000000    -1.581000000     2.925000000
H    -4.238000000    -0.623000000     3.897000000
O    -7.070000000     0.977000000    -3.682000000
H    -6.427000000     0.632000000    -4.301000000
H    -6.563000000     1.169000000    -2.893000000
O    -5.154000000     1.153000000    -1.530000000
H    -4.748000000     1.996000000    -1.729000000
H    -4.675000000     0.831000000    -0.766000000
O     6.728000000    -0.057000000     0.755000000
H     6.166000000    -0.789000000     0.502000000
H     7.071000000     0.278000000    -0.074000000
O     4.880000000    -1.474000000    -3.210000000
H     4.832000000    -2.165000000    -2.550000000
H     5.658000000    -1.687000000    -3.724000000
O    -4.063000000    -4.247000000    -2.052000000
H    -3.633000000    -4.415000000    -1.214000000
H    -3.767000000    -4.958000000    -2.620000000
O    -1.072000000    -4.719000000    -1.868000000
H    -0.825000000    -3.833000000    -2.131000000
H    -0.795000000    -5.272000000    -2.598000000
O     1.999000000     4.203000000    -0.707000000
H     2.595000000     3.726000000    -1.286000000
H     1.343000000     4.578000000    -1.294000000
O     6.021000000     2.043000000     2.363000000
H     5.903000000     1.406000000     1.658000000
H     5.136000000     2.347000000     2.563000000
O    -5.066000000     1.251000000     2.147000000
H    -4.805000000     2.053000000     1.695000000
H    -4.696000000     0.546000000     1.617000000
O     1.222000000    -0.949000000     5.162000000
H     2.043000000    -0.474000000     5.296000000
H     0.549000000    -0.269000000     5.166000000
O    -7.810000000     1.355000000    -0.375000000
H    -8.120000000     0.452000000    -0.308000000
H    -6.987000000     1.291000000    -0.859000000
O    -4.076000000    -1.440000000    -2.609000000
H    -4.217000000    -0.829000000    -1.886000000
H    -3.542000000    -2.139000000    -2.232000000
O     1.669000000    -3.391000000    -0.510000000
H     1.532000000    -3.673000000     0.394000000
H     1.063000000    -2.660000000    -0.628000000
O     4.087000000    -0.918000000     2.943000000
H     3.689000000    -0.048000000     2.922000000
H     3.382000000    -1.497000000     3.232000000
O    -1.270000000    -6.054000000     3.537000000
H    -2.188000000    -6.262000000     3.706000000
H    -1.298000000    -5.377000000     2.861000000
O     2.943000000     3.442000000     1.745000000
H     2.593000000     3.747000000     0.908000000
H     2.617000000     4.074000000     2.386000000
O    -0.394000000     5.279000000     0.548000000
H    -0.304000000     5.104000000    -0.389000000
H    -0.700000000     4.451000000     0.918000000
O    -6.299000000     0.215000000     4.475000000
H    -5.983000000     0.736000000     3.737000000
H    -7.089000000    -0.213000000     4.146000000
O    -3.165000000    -6.221000000     0.779000000
H    -3.686000000    -6.647000000     0.098000000
H    -3.565000000    -6.508000000     1.600000000
O    -6.958000000    -1.303000000    -0.869000000
H    -6.434000000    -1.669000000    -0.156000000
H    -6.380000000    -0.665000000    -1.287000000
O    -5.041000000     0.002000000    -5.159000000
H    -4.443000000     0.609000000    -5.596000000
H    -4.541000000    -0.333000000    -4.416000000
