144
-2805.25585
O     6.746000000    -2.149000000     2.469000000
H     6.833000000    -3.099000000     2.401000000
H     5.807000000    -1.987000000     2.374000000
O    -4.353000000     3.959000000     1.120000000
H    -4.087000000     4.813000000     0.779000000
H    -3.529000000     3.498000000     1.282000000
O    -5.540000000    -0.799000000    -4.712000000
H    -5.562000000    -0.615000000    -3.773000000
H    -4.620000000    -0.694000000    -4.956000000
O     0.141000000     3.389000000    -3.920000000
H     0.698000000     3.216000000    -4.680000000
H     0.652000000     3.993000000    -3.381000000
O    -2.578000000     2.671000000    -5.221000000
H    -1.881000000     3.006000000    -4.656000000
H    -3.387000000     2.978000000    -4.811000000
O    -1.738000000     2.930000000     1.242000000
H    -1.422000000     3.527000000     0.564000000
H    -1.024000000     2.304000000     1.362000000
O     1.289000000    -3.088000000    -0.611000000
H     1.079000000    -2.367000000    -0.017000000
H     0.438000000    -3.438000000    -0.873000000
O     4.923000000     5.536000000    -0.932000000
H     5.737000000     5.036000000    -0.992000000
H     5.023000000     6.062000000    -0.139000000
O     2.025000000     5.316000000    -2.459000000
H     2.729000000     4.679000000    -2.338000000
H     2.406000000     5.991000000    -3.020000000
O     0.605000000     1.706000000     3.257000000
H     0.259000000     1.918000000     4.124000000
H     1.543000000     1.573000000     3.399000000
O     3.492000000     1.888000000     3.578000000
H     3.582000000     2.183000000     4.484000000
H     3.792000000     2.630000000     3.053000000
O     5.040000000    -2.225000000    -1.568000000
H     5.862000000    -2.058000000    -1.107000000
H     4.697000000    -3.023000000    -1.166000000
O     0.207000000    -4.788000000     3.681000000
H     0.725000000    -3.996000000     3.823000000
H    -0.261000000    -4.624000000     2.863000000
O    -7.439000000    -3.689000000     3.256000000
H    -6.559000000    -3.320000000     3.190000000
H    -7.874000000    -3.418000000     2.448000000
O     0.035000000    -1.655000000    -4.206000000
H     0.142000000    -0.717000000    -4.365000000
H     0.710000000    -1.866000000    -3.561000000
O    -1.350000000    -4.348000000     1.420000000
H    -1.706000000    -3.474000000     1.585000000
H    -1.185000000    -4.364000000     0.477000000
O     3.349000000     2.977000000    -5.382000000
H     4.109000000     2.836000000    -4.817000000
H     3.082000000     2.098000000    -5.649000000
O     5.558000000     1.825000000    -3.931000000
H     6.193000000     2.182000000    -3.310000000
H     5.758000000     0.890000000    -3.968000000
O     2.238000000    -1.609000000    -2.550000000
H     1.837000000    -2.178000000    -1.892000000
H     3.112000000    -1.426000000    -2.207000000
O    -1.775000000    -1.818000000     6.435000000
H    -2.467000000    -1.349000000     6.903000000
H    -1.718000000    -1.377000000     5.587000000
O    -1.415000000     4.905000000    -0.630000000
H    -1.241000000     5.368000000    -1.450000000
H    -2.274000000     5.224000000    -0.353000000
O    -4.944000000    -2.707000000     2.429000000
H    -5.314000000    -2.661000000     1.547000000
H    -3.997000000    -2.738000000     2.290000000
O     1.105000000    -2.101000000     4.083000000
H     1.291000000    -1.786000000     4.968000000
H     1.738000000    -1.645000000     3.529000000
O    -4.450000000    -0.130000000     3.689000000
H    -4.708000000    -0.947000000     3.261000000
H    -3.516000000    -0.237000000     3.867000000
O     0.607000000     0.784000000    -4.700000000
H     0.598000000     1.205000000    -5.560000000
H     0.601000000     1.510000000    -4.077000000
O    -7.806000000     0.112000000    -2.040000000
H    -7.107000000     0.726000000    -1.812000000
H    -8.612000000     0.565000000    -1.792000000
O    -1.707000000    -0.680000000     4.010000000
H    -1.737000000    -1.296000000     3.277000000
H    -0.793000000    -0.400000000     4.050000000
O    -4.773000000     1.192000000    -1.789000000
H    -4.499000000     1.487000000    -0.921000000
H    -4.492000000     0.278000000    -1.831000000
O     6.566000000    -0.983000000    -3.465000000
H     6.060000000    -1.393000000    -2.764000000
H     7.436000000    -1.378000000    -3.394000000
O     3.355000000     0.255000000    -6.001000000
H     3.705000000    -0.042000000    -5.162000000
H     3.917000000    -0.159000000    -6.656000000
O    -3.787000000    -3.079000000    -1.460000000
H    -4.031000000    -2.251000000    -1.047000000
H    -3.777000000    -3.712000000    -0.742000000
O    -1.162000000    -4.059000000    -1.454000000
H    -1.905000000    -3.577000000    -1.818000000
H    -0.951000000    -4.712000000    -2.121000000
O     1.007000000     4.696000000     0.616000000
H     1.618000000     4.170000000     0.099000000
H     0.307000000     4.921000000     0.003000000
O    -5.402000000    -4.394000000    -3.301000000
H    -6.064000000    -3.889000000    -2.829000000
H    -4.587000000    -4.218000000    -2.831000000
O     6.015000000     2.847000000     1.666000000
H     6.033000000     2.134000000     2.304000000
H     5.276000000     3.392000000     1.936000000
O    -1.816000000    -5.100000000     5.614000000
H    -1.136000000    -4.732000000     5.050000000
H    -2.017000000    -5.950000000     5.224000000
O    -4.812000000     3.324000000    -3.418000000
H    -4.866000000     2.434000000    -3.071000000
H    -5.443000000     3.822000000    -2.897000000
O    -2.361000000    -3.420000000    -4.244000000
H    -1.671000000    -2.760000000    -4.171000000
H    -3.116000000    -3.024000000    -3.809000000
O     3.915000000    -3.824000000     0.260000000
H     3.916000000    -4.309000000     1.085000000
H     3.013000000    -3.519000000     0.164000000
O     4.092000000    -0.582000000     3.285000000
H     3.848000000     0.335000000     3.413000000
H     4.413000000    -0.866000000     4.140000000
O     3.614000000     4.064000000     2.254000000
H     2.693000000     3.803000000     2.232000000
H     3.592000000     5.012000000     2.379000000
O    -4.427000000    -5.010000000     4.247000000
H    -3.723000000    -4.744000000     4.838000000
H    -4.498000000    -4.291000000     3.620000000
O     2.333000000     7.180000000    -0.212000000
H     2.152000000     6.360000000    -0.672000000
H     2.608000000     6.907000000     0.663000000
O    -7.024000000    -2.373000000    -2.340000000
H    -7.024000000    -2.475000000    -1.388000000
H    -7.283000000    -1.463000000    -2.482000000
O    -3.643000000    -5.339000000     0.304000000
H    -4.308000000    -5.942000000     0.639000000
H    -2.960000000    -5.340000000     0.975000000
O    -7.480000000    -2.395000000     0.390000000
H    -7.545000000    -1.465000000     0.605000000
H    -8.381000000    -2.715000000     0.439000000
O    -5.493000000     0.881000000     1.187000000
H    -5.354000000     0.569000000     2.081000000
H    -4.877000000     0.375000000     0.658000000
O    -2.631000000    -0.382000000    -4.853000000
H    -2.151000000     0.428000000    -5.021000000
H    -1.981000000    -0.971000000    -4.469000000
