144
-2798.10347
O    -2.722000000     3.635000000     4.035000000
H    -2.257000000     4.466000000     3.940000000
H    -2.064000000     2.968000000     3.841000000
O    -4.488000000     1.466000000     2.959000000
H    -4.299000000     1.625000000     2.034000000
H    -4.237000000     2.279000000     3.397000000
O     1.229000000     0.282000000    -5.395000000
H     1.745000000     0.917000000    -5.892000000
H     1.247000000     0.611000000    -4.496000000
O     2.326000000     1.995000000    -7.356000000
H     2.620000000     2.824000000    -6.979000000
H     2.554000000     2.060000000    -8.283000000
O    -2.218000000     3.831000000    -4.260000000
H    -2.266000000     4.750000000    -3.996000000
H    -1.745000000     3.846000000    -5.092000000
O    -6.670000000    -3.254000000     3.632000000
H    -6.737000000    -2.578000000     2.957000000
H    -7.486000000    -3.178000000     4.127000000
O     4.419000000    -0.779000000    -4.072000000
H     4.154000000     0.140000000    -4.113000000
H     3.805000000    -1.231000000    -4.651000000
O     2.121000000    -2.844000000     5.206000000
H     1.493000000    -3.478000000     4.858000000
H     2.356000000    -3.188000000     6.067000000
O    -4.141000000     5.176000000    -2.128000000
H    -4.802000000     5.596000000    -2.679000000
H    -3.308000000     5.520000000    -2.450000000
O    -0.621000000     2.031000000     3.510000000
H    -0.165000000     1.255000000     3.186000000
H    -0.301000000     2.142000000     4.405000000
O     4.751000000     0.117000000     3.836000000
H     4.075000000    -0.329000000     3.326000000
H     4.417000000     0.113000000     4.733000000
O     4.825000000    -3.583000000     3.596000000
H     4.978000000    -4.050000000     2.775000000
H     3.927000000    -3.260000000     3.523000000
O     2.458000000    -6.541000000    -1.071000000
H     1.685000000    -6.009000000    -0.883000000
H     2.335000000    -7.335000000    -0.551000000
O    -1.298000000    -0.967000000    -2.485000000
H    -1.045000000    -1.795000000    -2.894000000
H    -0.853000000    -0.973000000    -1.637000000
O     0.942000000     5.783000000    -3.125000000
H     1.134000000     6.693000000    -2.897000000
H     1.695000000     5.502000000    -3.644000000
O     3.136000000    -4.960000000    -3.229000000
H     2.968000000    -5.688000000    -2.631000000
H     3.374000000    -4.230000000    -2.658000000
O    -3.591000000    -0.664000000    -5.239000000
H    -2.887000000    -0.167000000    -4.822000000
H    -3.295000000    -1.574000000    -5.203000000
O     3.706000000    -4.406000000     1.089000000
H     3.777000000    -5.320000000     0.814000000
H     3.906000000    -3.902000000     0.301000000
O     0.522000000    -5.170000000    -0.070000000
H     0.896000000    -4.842000000     0.747000000
H    -0.183000000    -5.756000000     0.207000000
O     3.565000000     1.847000000    -4.006000000
H     3.215000000     1.797000000    -3.116000000
H     3.933000000     2.728000000    -4.069000000
O    -1.694000000     6.495000000     1.672000000
H    -1.037000000     6.706000000     1.008000000
H    -2.273000000     5.864000000     1.243000000
O     1.741000000    -5.132000000     2.993000000
H     1.008000000    -4.536000000     2.840000000
H     2.462000000    -4.760000000     2.487000000
O    -2.931000000     1.454000000    -2.643000000
H    -2.448000000     1.936000000    -3.314000000
H    -2.334000000     0.758000000    -2.371000000
O    -1.130000000    -3.821000000    -2.339000000
H    -1.887000000    -4.406000000    -2.375000000
H    -0.604000000    -4.154000000    -1.613000000
O    -4.019000000    -3.815000000     2.900000000
H    -3.419000000    -3.070000000     2.889000000
H    -4.872000000    -3.434000000     3.110000000
O    -3.868000000    -4.096000000     0.284000000
H    -3.721000000    -4.180000000     1.226000000
H    -4.038000000    -3.163000000     0.151000000
O    -4.249000000    -1.115000000     0.518000000
H    -5.065000000    -1.153000000     1.017000000
H    -3.560000000    -1.177000000     1.180000000
O    -4.257000000    -2.571000000    -2.239000000
H    -4.327000000    -1.966000000    -1.500000000
H    -3.354000000    -2.476000000    -2.541000000
O    -1.759000000    -1.499000000     7.138000000
H    -1.367000000    -0.747000000     7.582000000
H    -2.076000000    -1.147000000     6.306000000
O    -2.989000000    -0.578000000     4.900000000
H    -2.337000000    -1.013000000     4.350000000
H    -3.449000000     0.012000000     4.303000000
O    -5.856000000    -0.151000000     5.468000000
H    -5.012000000    -0.537000000     5.236000000
H    -6.210000000     0.169000000     4.638000000
O     2.675000000    -1.529000000     2.785000000
H     1.939000000    -1.518000000     2.173000000
H     2.305000000    -1.874000000     3.598000000
O    -6.769000000    -1.243000000     1.626000000
H    -6.829000000    -0.298000000     1.766000000
H    -7.425000000    -1.427000000     0.953000000
O     0.162000000     5.568000000    -0.553000000
H     0.012000000     4.681000000    -0.223000000
H     0.478000000     5.440000000    -1.447000000
O    -1.939000000     6.459000000    -3.145000000
H    -1.032000000     6.166000000    -3.051000000
H    -1.973000000     7.289000000    -2.670000000
O    -4.265000000     1.886000000     0.030000000
H    -4.813000000     1.930000000    -0.753000000
H    -3.669000000     1.156000000    -0.135000000
O    -0.476000000     4.023000000    -6.337000000
H    -0.568000000     3.736000000    -7.246000000
H     0.363000000     3.658000000    -6.055000000
O     4.708000000    -2.858000000    -1.155000000
H     4.878000000    -2.373000000    -1.962000000
H     5.458000000    -2.662000000    -0.594000000
O     3.158000000     4.911000000    -4.698000000
H     3.156000000     4.837000000    -5.652000000
H     3.792000000     5.603000000    -4.512000000
O    -1.784000000    -4.612000000     4.000000000
H    -1.104000000    -4.085000000     3.581000000
H    -2.601000000    -4.308000000     3.604000000
O     5.777000000     3.591000000     1.646000000
H     4.831000000     3.477000000     1.554000000
H     5.988000000     4.318000000     1.061000000
O     3.181000000     3.834000000     1.202000000
H     3.126000000     3.245000000     0.450000000
H     2.290000000     4.166000000     1.311000000
O    -1.381000000    -7.315000000     3.954000000
H    -2.269000000    -7.608000000     3.751000000
H    -1.455000000    -6.364000000     4.037000000
O    -2.319000000    -5.444000000     6.770000000
H    -1.794000000    -4.920000000     7.375000000
H    -2.187000000    -5.029000000     5.918000000
O     0.370000000     3.848000000     1.769000000
H    -0.176000000     4.633000000     1.735000000
H     0.073000000     3.382000000     2.550000000
O    -5.438000000     2.833000000    -2.644000000
H    -4.838000000     3.499000000    -2.308000000
H    -4.868000000     2.115000000    -2.921000000
O    -0.119000000    -1.425000000    -7.289000000
H    -0.525000000    -2.042000000    -6.680000000
H     0.554000000    -0.984000000    -6.772000000
O    -3.661000000     4.700000000     0.501000000
H    -3.805000000     3.754000000     0.525000000
H    -4.066000000     4.983000000    -0.319000000
