144
-2786.09445
O     2.928000000     2.782000000     1.092000000
H     2.423000000     3.444000000     0.620000000
H     2.418000000     2.613000000     1.885000000
O     0.215000000    -3.949000000    -3.228000000
H     0.448000000    -4.398000000    -4.041000000
H     0.908000000    -4.190000000    -2.614000000
O    -3.910000000     2.044000000     1.108000000
H    -4.151000000     2.170000000     0.190000000
H    -3.416000000     2.831000000     1.336000000
O     2.722000000    -5.199000000    -1.842000000
H     3.198000000    -4.681000000    -1.192000000
H     1.898000000    -5.425000000    -1.412000000
O     3.986000000    -0.990000000    -2.601000000
H     4.421000000    -1.530000000    -3.262000000
H     4.660000000    -0.373000000    -2.315000000
O    -4.431000000     0.172000000     2.954000000
H    -5.302000000     0.409000000     3.271000000
H    -4.155000000     0.924000000     2.428000000
O     4.415000000    -3.212000000     3.594000000
H     3.969000000    -3.310000000     4.435000000
H     3.949000000    -2.499000000     3.157000000
O    -0.224000000    -6.122000000     4.165000000
H    -1.097000000    -6.280000000     4.524000000
H    -0.034000000    -5.211000000     4.390000000
O     4.948000000    -3.430000000    -0.667000000
H     4.489000000    -2.788000000    -0.125000000
H     4.697000000    -3.210000000    -1.564000000
O     4.336000000     5.694000000    -0.098000000
H     3.555000000     5.841000000    -0.631000000
H     4.004000000     5.609000000     0.796000000
O     0.111000000     5.806000000     1.837000000
H     0.406000000     6.462000000     1.207000000
H    -0.417000000     6.298000000     2.466000000
O     4.364000000     1.013000000    -5.442000000
H     3.658000000     1.289000000    -6.026000000
H     3.921000000     0.771000000    -4.629000000
O     0.651000000    -0.549000000     6.898000000
H     0.437000000    -0.951000000     6.056000000
H     1.605000000    -0.465000000     6.887000000
O     0.722000000    -5.684000000    -0.132000000
H     0.674000000    -4.797000000     0.226000000
H    -0.118000000    -6.081000000     0.098000000
O     1.717000000     5.788000000    -0.839000000
H     1.476000000     6.463000000    -0.204000000
H     0.960000000     5.724000000    -1.421000000
O    -2.696000000     4.467000000     4.028000000
H    -2.275000000     5.322000000     4.117000000
H    -2.248000000     4.056000000     3.288000000
O    -3.033000000     5.606000000    -1.149000000
H    -3.265000000     5.610000000    -2.078000000
H    -2.916000000     6.529000000    -0.927000000
O    -4.231000000    -6.485000000     3.595000000
H    -3.545000000    -5.864000000     3.840000000
H    -3.906000000    -6.898000000     2.795000000
O     2.539000000    -3.512000000     0.714000000
H     1.590000000    -3.594000000     0.815000000
H     2.740000000    -2.636000000     1.042000000
O    -2.198000000    -1.373000000    -6.131000000
H    -2.759000000    -0.602000000    -6.052000000
H    -1.602000000    -1.314000000    -5.384000000
O    -1.947000000    -6.604000000    -0.813000000
H    -1.577000000    -6.188000000    -1.592000000
H    -2.742000000    -6.104000000    -0.629000000
O    -2.696000000    -4.218000000     3.963000000
H    -3.523000000    -3.741000000     3.896000000
H    -2.077000000    -3.697000000     3.452000000
O    -4.303000000    -2.166000000     0.910000000
H    -3.719000000    -1.413000000     0.996000000
H    -4.184000000    -2.655000000     1.724000000
O    -0.748000000    -0.909000000    -3.972000000
H    -0.224000000    -1.632000000    -3.627000000
H    -1.622000000    -1.052000000    -3.610000000
O     1.751000000     1.167000000     3.895000000
H     2.602000000     1.078000000     4.324000000
H     1.608000000     2.112000000     3.842000000
O    -0.196000000    -0.924000000     4.460000000
H     0.102000000    -0.135000000     4.007000000
H    -0.500000000    -1.502000000     3.760000000
O    -2.358000000     4.252000000     1.246000000
H    -1.488000000     4.629000000     1.376000000
H    -2.655000000     4.615000000     0.412000000
O     3.372000000    -0.008000000     0.175000000
H     3.180000000     0.929000000     0.215000000
H     3.148000000    -0.261000000    -0.720000000
O     2.399000000     5.754000000    -4.746000000
H     1.564000000     5.713000000    -4.280000000
H     2.519000000     4.873000000    -5.100000000
O    -0.245000000     3.919000000    -6.735000000
H    -0.737000000     3.328000000    -7.304000000
H    -0.178000000     3.450000000    -5.903000000
O    -2.236000000    -5.797000000    -3.783000000
H    -3.131000000    -5.886000000    -4.111000000
H    -2.104000000    -4.853000000    -3.700000000
O    -0.303000000    -7.919000000     2.174000000
H    -1.025000000    -8.430000000     2.541000000
H    -0.226000000    -7.162000000     2.753000000
O    -0.637000000     1.583000000    -5.323000000
H    -0.604000000     1.233000000    -6.213000000
H    -0.568000000     0.812000000    -4.760000000
O    -3.403000000    -4.387000000     6.509000000
H    -3.143000000    -4.167000000     5.614000000
H    -2.846000000    -5.129000000     6.744000000
O     3.950000000    -5.583000000     1.969000000
H     3.433000000    -5.076000000     1.343000000
H     4.344000000    -4.926000000     2.542000000
O    -2.469000000     3.098000000    -3.869000000
H    -1.962000000     2.652000000    -4.547000000
H    -2.126000000     3.992000000    -3.863000000
O    -4.993000000    -2.730000000     4.214000000
H    -5.259000000    -3.026000000     5.084000000
H    -4.384000000    -2.010000000     4.381000000
O     5.846000000     4.265000000    -2.176000000
H     6.528000000     4.935000000    -2.217000000
H     5.420000000     4.408000000    -1.330000000
O     5.558000000     3.173000000     2.055000000
H     6.051000000     2.968000000     1.260000000
H     4.642000000     3.051000000     1.807000000
O     2.828000000    -1.268000000     2.316000000
H     3.179000000    -0.805000000     1.555000000
H     2.427000000    -0.582000000     2.849000000
O     0.148000000     5.879000000    -3.096000000
H    -0.082000000     6.792000000    -3.272000000
H    -0.564000000     5.373000000    -3.487000000
O    -4.186000000    -5.209000000    -0.135000000
H    -5.079000000    -5.520000000    -0.281000000
H    -4.272000000    -4.259000000    -0.059000000
O     2.629000000    -7.145000000     3.833000000
H     1.711000000    -6.961000000     3.634000000
H     3.121000000    -6.641000000     3.185000000
O     0.749000000    -3.637000000     4.175000000
H     0.409000000    -2.783000000     4.444000000
H     0.431000000    -3.749000000     3.279000000
O     1.824000000     3.690000000     3.619000000
H     2.351000000     4.298000000     4.138000000
H     1.036000000     4.185000000     3.397000000
O    -4.626000000     2.669000000    -1.483000000
H    -3.810000000     2.432000000    -1.924000000
H    -5.219000000     2.914000000    -2.193000000
O     2.117000000    -3.165000000    -5.328000000
H     2.175000000    -2.555000000    -4.593000000
H     2.614000000    -3.932000000    -5.043000000
O    -3.134000000    -1.096000000     4.955000000
H    -2.190000000    -1.051000000     4.805000000
H    -3.513000000    -0.550000000     4.266000000
