144
-2839.05106
O     0.167000000    -5.018000000     3.849000000
H    -0.594000000    -4.504000000     4.118000000
H     0.900000000    -4.404000000     3.896000000
O    -3.019000000    -5.223000000    -1.985000000
H    -2.205000000    -4.967000000    -2.419000000
H    -3.192000000    -6.109000000    -2.303000000
O     4.006000000     3.892000000    -4.336000000
H     4.537000000     4.361000000    -4.980000000
H     4.064000000     2.974000000    -4.600000000
O     4.231000000     1.564000000    -0.298000000
H     3.765000000     2.358000000    -0.035000000
H     4.411000000     1.110000000     0.525000000
O    -1.538000000    -2.859000000    -4.926000000
H    -0.755000000    -2.695000000    -5.452000000
H    -1.393000000    -3.725000000    -4.544000000
O    -1.059000000     2.909000000    -3.742000000
H    -1.242000000     2.441000000    -4.557000000
H    -0.109000000     2.850000000    -3.641000000
O    -5.267000000     1.022000000    -2.640000000
H    -4.427000000     1.421000000    -2.412000000
H    -5.195000000     0.119000000    -2.331000000
O     4.690000000     5.096000000    -1.896000000
H     4.038000000     4.783000000    -1.270000000
H     5.260000000     4.341000000    -2.045000000
O     0.719000000     3.646000000     3.439000000
H     1.402000000     3.689000000     4.108000000
H     0.369000000     2.758000000     3.511000000
O    -1.667000000    -3.125000000     4.584000000
H    -1.402000000    -2.275000000     4.232000000
H    -2.295000000    -3.463000000     3.946000000
O     1.875000000     5.577000000    -3.092000000
H     1.637000000     6.131000000    -3.835000000
H     2.772000000     5.299000000    -3.278000000
O    -0.584000000    -0.686000000    -6.530000000
H    -1.055000000     0.071000000    -6.181000000
H    -1.118000000    -0.981000000    -7.267000000
O     1.367000000     2.858000000    -5.146000000
H     0.741000000     3.368000000    -5.660000000
H     2.134000000     3.425000000    -5.070000000
O    -0.600000000    -0.090000000     7.011000000
H    -0.589000000    -0.844000000     7.601000000
H    -0.003000000    -0.330000000     6.303000000
O    -1.527000000     4.629000000    -1.617000000
H    -1.426000000     3.954000000    -2.288000000
H    -1.409000000     5.454000000    -2.088000000
O     2.821000000     1.011000000     7.681000000
H     3.103000000     0.204000000     8.111000000
H     2.619000000     0.747000000     6.784000000
O    -4.397000000     0.120000000     0.472000000
H    -5.186000000     0.653000000     0.570000000
H    -3.889000000     0.568000000    -0.204000000
O     0.657000000     2.979000000     6.876000000
H     0.952000000     2.069000000     6.843000000
H     1.196000000     3.381000000     7.558000000
O    -1.577000000     3.488000000     5.578000000
H    -0.798000000     3.771000000     6.057000000
H    -1.281000000     2.743000000     5.056000000
O     0.685000000     6.514000000     3.152000000
H     0.805000000     5.680000000     2.697000000
H     0.133000000     6.299000000     3.904000000
O    -2.112000000     1.530000000    -5.808000000
H    -2.938000000     1.147000000    -5.514000000
H    -2.329000000     2.440000000    -6.011000000
O    -5.681000000    -2.422000000     4.884000000
H    -4.966000000    -2.038000000     4.376000000
H    -6.461000000    -2.273000000     4.350000000
O     0.821000000    -2.355000000     6.745000000
H     1.774000000    -2.399000000     6.667000000
H     0.510000000    -2.281000000     5.842000000
O    -3.326000000    -0.688000000    -4.508000000
H    -4.046000000    -1.313000000    -4.426000000
H    -2.539000000    -1.231000000    -4.534000000
O    -4.136000000    -1.356000000     2.917000000
H    -3.727000000    -2.202000000     2.732000000
H    -4.310000000    -0.980000000     2.054000000
O     1.956000000    -4.206000000    -2.902000000
H     2.742000000    -4.637000000    -2.568000000
H     2.247000000    -3.324000000    -3.133000000
O     3.921000000     4.359000000     2.937000000
H     3.851000000     4.531000000     3.876000000
H     4.783000000     4.699000000     2.695000000
O     2.651000000     4.673000000     0.221000000
H     3.024000000     4.696000000     1.102000000
H     1.728000000     4.459000000     0.356000000
O    -0.673000000    -5.088000000    -3.485000000
H     0.152000000    -4.666000000    -3.245000000
H    -0.533000000    -6.015000000    -3.295000000
O    -2.520000000     1.360000000    -1.962000000
H    -2.004000000     0.562000000    -2.083000000
H    -1.914000000     2.071000000    -2.174000000
O     3.324000000    -1.291000000     0.880000000
H     2.773000000    -0.752000000     0.312000000
H     3.723000000    -1.930000000     0.289000000
O    -0.252000000    -6.090000000     1.360000000
H    -1.195000000    -6.250000000     1.373000000
H    -0.091000000    -5.541000000     2.127000000
O     0.028000000     4.877000000     0.860000000
H    -0.389000000     4.905000000    -0.001000000
H    -0.682000000     4.656000000     1.463000000
O    -2.813000000     0.322000000     5.568000000
H    -2.666000000    -0.231000000     4.801000000
H    -1.945000000     0.426000000     5.959000000
O    -3.723000000     1.767000000     3.286000000
H    -3.425000000     1.529000000     4.164000000
H    -4.130000000     0.970000000     2.947000000
O    -1.793000000     3.764000000     2.655000000
H    -0.905000000     3.645000000     2.990000000
H    -2.196000000     2.899000000     2.733000000
O     3.937000000    -1.532000000    -4.395000000
H     3.428000000    -1.244000000    -5.152000000
H     4.742000000    -1.891000000    -4.770000000
O    -2.507000000    -3.648000000     7.071000000
H    -2.145000000    -3.441000000     6.210000000
H    -1.904000000    -3.237000000     7.690000000
O     1.237000000    -2.525000000     2.886000000
H     1.289000000    -2.197000000     1.988000000
H     0.733000000    -1.859000000     3.354000000
O     4.180000000     1.072000000    -3.280000000
H     3.970000000     0.153000000    -3.443000000
H     3.952000000     1.211000000    -2.361000000
O    -3.503000000    -3.942000000     2.692000000
H    -3.775000000    -4.567000000     3.363000000
H    -3.422000000    -4.466000000     1.895000000
O     1.394000000     0.464000000     5.447000000
H     2.112000000     0.134000000     4.906000000
H     0.768000000     0.825000000     4.819000000
O     3.163000000    -0.566000000     3.602000000
H     3.793000000    -0.031000000     3.120000000
H     2.748000000    -1.109000000     2.932000000
O    -3.915000000     2.902000000     6.879000000
H    -3.099000000     2.889000000     6.380000000
H    -3.829000000     2.178000000     7.499000000
O    -3.103000000    -6.100000000     0.863000000
H    -3.515000000    -6.952000000     0.722000000
H    -2.617000000    -5.932000000     0.056000000
O     2.090000000    -0.111000000    -6.576000000
H     1.157000000    -0.244000000    -6.747000000
H     2.121000000     0.657000000    -6.005000000
O    -3.438000000     3.867000000     0.093000000
H    -2.762000000     3.997000000    -0.572000000
H    -2.954000000     3.618000000     0.881000000
O     4.844000000     1.438000000     2.523000000
H     5.718000000     1.604000000     2.876000000
H     4.348000000     2.231000000     2.729000000
