144
-2834.15621
O    -1.215000000    -3.778000000    -3.705000000
H    -1.515000000    -2.962000000    -3.306000000
H    -1.866000000    -3.968000000    -4.381000000
O     3.265000000     0.024000000     4.434000000
H     2.456000000    -0.388000000     4.128000000
H     3.622000000     0.456000000     3.658000000
O    -0.673000000     2.261000000    -5.991000000
H    -0.392000000     3.157000000    -5.804000000
H    -1.271000000     2.044000000    -5.275000000
O    -2.839000000     4.276000000     3.281000000
H    -2.996000000     3.495000000     3.812000000
H    -1.952000000     4.159000000     2.940000000
O    -5.306000000     2.768000000     2.194000000
H    -4.458000000     3.211000000     2.178000000
H    -5.251000000     2.118000000     1.494000000
O    -0.153000000     3.878000000    -2.066000000
H     0.099000000     3.748000000    -2.980000000
H     0.394000000     3.263000000    -1.577000000
O    -0.096000000    -4.235000000    -0.866000000
H    -0.709000000    -3.599000000    -1.233000000
H     0.392000000    -4.561000000    -1.623000000
O    -5.382000000     1.813000000    -2.877000000
H    -5.384000000     0.857000000    -2.922000000
H    -4.945000000     2.013000000    -2.049000000
O     2.834000000     3.030000000    -1.630000000
H     3.255000000     2.320000000    -2.116000000
H     3.445000000     3.763000000    -1.701000000
O    -1.015000000    -1.833000000     5.915000000
H    -0.151000000    -2.218000000     5.773000000
H    -1.220000000    -1.392000000     5.091000000
O     4.453000000     1.003000000     2.244000000
H     4.694000000     1.929000000     2.268000000
H     4.768000000     0.695000000     1.394000000
O    -3.744000000    -1.350000000    -3.843000000
H    -3.684000000    -1.662000000    -2.940000000
H    -4.663000000    -1.475000000    -4.080000000
O    -2.842000000     1.619000000     4.226000000
H    -2.570000000     1.820000000     5.121000000
H    -2.144000000     1.060000000     3.884000000
O    -3.195000000     4.238000000    -5.831000000
H    -3.992000000     4.223000000    -5.300000000
H    -2.634000000     3.568000000    -5.441000000
O     0.507000000    -5.102000000     1.478000000
H    -0.022000000    -5.899000000     1.507000000
H     0.365000000    -4.753000000     0.598000000
O    -2.210000000     2.579000000     6.856000000
H    -2.195000000     2.957000000     7.735000000
H    -1.959000000     3.301000000     6.280000000
O     0.076000000     4.124000000     2.384000000
H     0.606000000     3.458000000     1.946000000
H     0.584000000     4.931000000     2.293000000
O    -6.202000000    -2.688000000     3.416000000
H    -5.472000000    -2.327000000     2.912000000
H    -6.762000000    -1.934000000     3.600000000
O     1.755000000     0.657000000    -6.260000000
H     2.279000000     1.457000000    -6.222000000
H     0.849000000     0.963000000    -6.211000000
O     3.846000000    -3.565000000     4.569000000
H     3.389000000    -3.469000000     3.733000000
H     4.655000000    -3.067000000     4.458000000
O     2.180000000    -3.215000000     2.565000000
H     1.536000000    -3.913000000     2.443000000
H     1.661000000    -2.450000000     2.812000000
O    -3.903000000    -2.358000000     1.036000000
H    -4.016000000    -1.705000000     1.727000000
H    -3.643000000    -3.154000000     1.500000000
O    -1.321000000    -4.379000000     4.310000000
H    -2.114000000    -4.508000000     3.789000000
H    -1.200000000    -3.430000000     4.329000000
O     4.346000000    -3.905000000     1.020000000
H     3.622000000    -3.583000000     1.556000000
H     4.022000000    -4.725000000     0.647000000
O     3.802000000    -3.832000000    -2.058000000
H     3.151000000    -4.315000000    -1.549000000
H     4.639000000    -4.220000000    -1.804000000
O     3.393000000    -3.696000000    -4.710000000
H     3.601000000    -3.659000000    -3.776000000
H     2.686000000    -3.061000000    -4.823000000
O     3.734000000     2.514000000     5.618000000
H     4.180000000     2.318000000     6.442000000
H     3.686000000     1.672000000     5.165000000
O    -5.403000000     0.824000000    -0.314000000
H    -6.349000000     0.710000000    -0.405000000
H    -5.036000000    -0.031000000    -0.538000000
O    -5.154000000    -1.716000000    -1.344000000
H    -5.019000000    -1.957000000    -0.428000000
H    -5.957000000    -2.173000000    -1.596000000
O     4.507000000    -0.681000000     6.533000000
H     4.972000000    -1.514000000     6.446000000
H     4.093000000    -0.548000000     5.680000000
O    -4.687000000    -0.296000000     3.093000000
H    -4.283000000     0.261000000     3.758000000
H    -5.611000000    -0.335000000     3.342000000
O    -0.058000000     4.899000000    -5.207000000
H    -0.816000000     5.440000000    -5.428000000
H     0.694000000     5.479000000    -5.326000000
O    -2.078000000    -2.279000000    -1.161000000
H    -2.745000000    -2.548000000    -0.529000000
H    -1.569000000    -1.611000000    -0.701000000
O     1.313000000    -2.123000000    -5.655000000
H     0.358000000    -2.178000000    -5.676000000
H     1.497000000    -1.191000000    -5.537000000
O     1.559000000    -2.684000000     5.797000000
H     2.371000000    -3.125000000     5.548000000
H     1.487000000    -1.951000000     5.186000000
O     0.326000000    -3.745000000     8.191000000
H     0.085000000    -2.943000000     8.654000000
H     0.790000000    -3.441000000     7.411000000
O     0.657000000     1.613000000     4.965000000
H     0.187000000     0.888000000     4.553000000
H     1.096000000     1.217000000     5.718000000
O     4.787000000     1.412000000    -2.559000000
H     4.777000000     0.455000000    -2.531000000
H     5.334000000     1.624000000    -3.315000000
O     2.168000000     2.712000000     1.104000000
H     2.102000000     2.884000000     0.165000000
H     2.641000000     1.882000000     1.164000000
O    -0.294000000     3.998000000     4.930000000
H    -0.308000000     4.249000000     4.007000000
H    -0.021000000     3.081000000     4.925000000
O     3.264000000     2.523000000    -5.172000000
H     4.001000000     1.934000000    -5.013000000
H     3.304000000     3.155000000    -4.455000000
O     6.268000000    -1.770000000    -0.013000000
H     6.475000000    -1.046000000     0.578000000
H     5.629000000    -2.297000000     0.468000000
O    -2.721000000     1.841000000    -4.155000000
H    -3.240000000     2.038000000    -3.375000000
H    -2.998000000     0.961000000    -4.410000000
O    -3.292000000     3.638000000    -1.961000000
H    -2.344000000     3.511000000    -1.926000000
H    -3.508000000     4.060000000    -1.130000000
O     5.793000000     1.257000000    -0.021000000
H     5.396000000     1.425000000    -0.875000000
H     6.736000000     1.291000000    -0.184000000
O     4.672000000    -1.232000000    -2.160000000
H     5.267000000    -1.137000000    -1.416000000
H     4.377000000    -2.142000000    -2.116000000
O     1.706000000     0.258000000     7.163000000
H     2.291000000    -0.499000000     7.196000000
H     1.770000000     0.648000000     8.035000000
O    -1.164000000    -1.111000000     8.468000000
H    -1.244000000    -1.468000000     7.583000000
H    -0.957000000    -0.185000000     8.334000000
