144
-2799.89986
O     0.442000000    -3.264000000    -3.405000000
H    -0.269000000    -2.818000000    -2.944000000
H     0.006000000    -3.751000000    -4.104000000
O     1.923000000    -1.192000000     5.734000000
H     1.530000000    -1.567000000     4.946000000
H     2.225000000    -0.326000000     5.462000000
O    -1.651000000     1.990000000    -5.392000000
H    -2.573000000     1.738000000    -5.422000000
H    -1.579000000     2.544000000    -4.614000000
O    -3.562000000     3.067000000     1.467000000
H    -4.339000000     2.924000000     2.007000000
H    -3.077000000     2.244000000     1.523000000
O    -0.433000000     3.380000000    -0.873000000
H    -0.550000000     3.334000000     0.076000000
H     0.443000000     3.027000000    -1.024000000
O    -5.807000000    -0.050000000    -3.147000000
H    -5.775000000    -0.324000000    -2.231000000
H    -5.140000000     0.632000000    -3.218000000
O     5.972000000     3.302000000    -0.808000000
H     5.265000000     2.790000000    -0.415000000
H     6.299000000     2.751000000    -1.520000000
O     6.696000000    -0.245000000     3.542000000
H     5.828000000    -0.644000000     3.604000000
H     6.693000000     0.206000000     2.697000000
O    -1.740000000     3.969000000    -3.279000000
H    -2.386000000     4.662000000    -3.141000000
H    -1.343000000     3.837000000    -2.417000000
O     2.454000000     3.306000000    -0.263000000
H     2.601000000     2.961000000    -1.144000000
H     2.476000000     4.256000000    -0.371000000
O    -3.594000000    -1.359000000     3.941000000
H    -3.536000000    -1.487000000     4.888000000
H    -2.686000000    -1.249000000     3.658000000
O     3.254000000     1.085000000     3.789000000
H     3.608000000     1.608000000     3.070000000
H     3.556000000     0.195000000     3.609000000
O     1.522000000     5.853000000    -1.019000000
H     1.090000000     5.893000000    -1.873000000
H     1.381000000     6.720000000    -0.639000000
O    -2.826000000     1.791000000     4.249000000
H    -2.286000000     2.555000000     4.047000000
H    -2.207000000     1.063000000     4.290000000
O    -0.963000000     4.067000000     3.934000000
H    -0.766000000     3.707000000     3.069000000
H    -0.763000000     5.000000000     3.856000000
O    -7.517000000    -1.244000000     1.988000000
H    -6.647000000    -0.928000000     1.743000000
H    -7.542000000    -1.162000000     2.941000000
O     0.360000000     0.134000000    -6.017000000
H     0.965000000     0.803000000    -6.338000000
H    -0.458000000     0.607000000    -5.861000000
O     2.100000000    -4.472000000     6.260000000
H     1.626000000    -3.642000000     6.205000000
H     2.476000000    -4.474000000     7.141000000
O     3.689000000    -5.459000000     4.214000000
H     3.303000000    -5.329000000     5.081000000
H     3.102000000    -4.994000000     3.618000000
O     1.916000000    -3.872000000     2.756000000
H     1.471000000    -4.319000000     2.036000000
H     1.271000000    -3.246000000     3.084000000
O    -5.048000000    -3.316000000     1.397000000
H    -4.600000000    -2.833000000     2.091000000
H    -5.184000000    -4.190000000     1.763000000
O    -4.133000000    -4.197000000     4.287000000
H    -3.910000000    -4.818000000     3.595000000
H    -3.546000000    -3.455000000     4.142000000
O     3.996000000    -3.643000000     0.019000000
H     3.065000000    -3.421000000     0.059000000
H     4.014000000    -4.600000000     0.027000000
O     4.429000000     1.037000000    -6.046000000
H     4.254000000     0.771000000    -5.144000000
H     3.748000000     1.681000000    -6.242000000
O    -5.394000000     2.595000000    -1.718000000
H    -5.332000000     3.547000000    -1.633000000
H    -5.812000000     2.458000000    -2.568000000
O     2.172000000    -1.433000000    -4.457000000
H     1.637000000    -1.914000000    -3.825000000
H     1.565000000    -0.813000000    -4.861000000
O     2.039000000     2.236000000     6.002000000
H     2.342000000     1.846000000     5.182000000
H     1.308000000     1.682000000     6.276000000
O    -5.868000000    -0.970000000    -0.732000000
H    -6.664000000    -1.406000000    -0.428000000
H    -5.512000000    -0.549000000     0.051000000
O     3.912000000    -1.365000000     7.614000000
H     3.417000000    -1.573000000     8.406000000
H     3.280000000    -1.466000000     6.902000000
O     4.206000000    -1.698000000     3.540000000
H     4.791000000    -2.159000000     4.142000000
H     3.394000000    -2.204000000     3.562000000
O    -5.150000000     0.113000000     1.872000000
H    -4.772000000    -0.202000000     2.693000000
H    -5.280000000     1.051000000     2.013000000
O     0.464000000     4.794000000    -5.316000000
H    -0.209000000     4.381000000    -4.775000000
H    -0.023000000     5.215000000    -6.024000000
O     5.330000000    -1.717000000    -1.705000000
H     4.971000000    -2.500000000    -1.289000000
H     5.944000000    -2.053000000    -2.358000000
O    -1.336000000    -2.637000000    -1.379000000
H    -2.133000000    -2.403000000    -0.904000000
H    -0.700000000    -1.969000000    -1.123000000
O    -0.582000000    -2.437000000    -6.817000000
H    -1.515000000    -2.278000000    -6.679000000
H    -0.150000000    -1.669000000    -6.443000000
O    -1.073000000    -3.355000000     5.009000000
H    -0.901000000    -4.239000000     4.687000000
H    -0.464000000    -2.800000000     4.522000000
O    -0.600000000     0.827000000     6.358000000
H    -0.441000000     0.204000000     5.650000000
H    -0.960000000     0.296000000     7.069000000
O     3.600000000     2.805000000    -2.660000000
H     3.559000000     1.902000000    -2.976000000
H     4.518000000     3.055000000    -2.768000000
O     0.130000000     2.847000000     1.770000000
H     1.023000000     2.970000000     1.448000000
H    -0.100000000     1.957000000     1.503000000
O    -1.202000000     3.368000000     6.446000000
H    -1.199000000     3.622000000     5.524000000
H    -0.937000000     2.448000000     6.442000000
O     2.425000000     2.974000000    -5.635000000
H     2.743000000     3.184000000    -4.757000000
H     1.760000000     3.638000000    -5.814000000
O     6.210000000    -2.625000000     1.445000000
H     6.438000000    -1.697000000     1.399000000
H     5.367000000    -2.687000000     0.996000000
O    -0.570000000     2.696000000    -7.987000000
H    -0.769000000     2.277000000    -7.150000000
H     0.133000000     2.164000000    -8.360000000
O     4.963000000     0.616000000    -0.181000000
H     5.163000000    -0.002000000    -0.883000000
H     5.758000000     0.641000000     0.351000000
O     3.882000000     0.238000000    -3.368000000
H     4.457000000    -0.357000000    -2.887000000
H     3.150000000    -0.311000000    -3.649000000
O    -2.953000000    -1.973000000     6.594000000
H    -2.368000000    -2.509000000     6.057000000
H    -2.387000000    -1.612000000     7.276000000
O     4.321000000     2.524000000     1.719000000
H     4.357000000     1.848000000     1.042000000
H     3.683000000     3.158000000     1.392000000
O    -4.999000000     0.333000000     5.957000000
H    -4.588000000     0.647000000     5.151000000
H    -4.698000000     0.942000000     6.632000000
