144
-2821.13953
O    -1.336000000     2.956000000    -4.707000000
H    -2.235000000     2.935000000    -4.379000000
H    -1.171000000     2.065000000    -5.013000000
O     0.232000000     5.534000000    -1.908000000
H     0.609000000     5.076000000    -1.156000000
H    -0.666000000     5.733000000    -1.641000000
O    -1.974000000     4.078000000     0.418000000
H    -2.306000000     4.718000000    -0.211000000
H    -1.540000000     3.416000000    -0.121000000
O     5.037000000     3.210000000    -1.384000000
H     4.359000000     3.633000000    -1.911000000
H     5.294000000     2.443000000    -1.895000000
O     1.625000000    -4.622000000    -0.279000000
H     1.702000000    -4.702000000    -1.230000000
H     2.264000000    -3.951000000    -0.042000000
O    -0.632000000    -3.082000000    -5.251000000
H    -0.392000000    -3.683000000    -5.956000000
H    -1.382000000    -3.497000000    -4.826000000
O     1.448000000     5.824000000     3.123000000
H     0.592000000     5.426000000     2.965000000
H     1.319000000     6.369000000     3.899000000
O    -1.334000000     5.513000000     2.865000000
H    -1.209000000     5.446000000     1.919000000
H    -2.202000000     5.904000000     2.965000000
O    -4.325000000    -1.167000000     0.658000000
H    -4.595000000    -0.684000000     1.440000000
H    -3.498000000    -1.580000000     0.905000000
O     1.194000000    -5.084000000     3.486000000
H     0.554000000    -4.373000000     3.458000000
H     0.803000000    -5.735000000     4.070000000
O     2.220000000     2.085000000     7.448000000
H     1.904000000     1.188000000     7.555000000
H     2.600000000     2.308000000     8.298000000
O     2.868000000    -2.387000000     5.059000000
H     1.943000000    -2.503000000     4.840000000
H     3.165000000    -1.684000000     4.481000000
O     6.988000000    -2.109000000     0.448000000
H     6.533000000    -1.311000000     0.718000000
H     7.908000000    -1.852000000     0.389000000
O    -2.593000000    -0.725000000     7.027000000
H    -3.017000000    -0.708000000     6.169000000
H    -1.876000000    -0.095000000     6.953000000
O    -4.106000000     2.585000000    -4.001000000
H    -4.344000000     1.659000000    -3.962000000
H    -4.412000000     2.946000000    -3.169000000
O     1.330000000     2.146000000    -7.812000000
H     0.548000000     1.810000000    -8.250000000
H     1.117000000     2.108000000    -6.879000000
O    -2.486000000    -4.155000000    -3.560000000
H    -2.868000000    -5.032000000    -3.603000000
H    -3.240000000    -3.566000000    -3.533000000
O     5.240000000    -0.555000000     2.407000000
H     5.363000000     0.394000000     2.409000000
H     4.381000000    -0.686000000     2.810000000
O    -3.249000000     2.881000000     2.611000000
H    -2.531000000     2.297000000     2.853000000
H    -2.870000000     3.467000000     1.956000000
O     1.249000000     3.796000000    -0.146000000
H     1.026000000     3.838000000     0.784000000
H     1.903000000     3.098000000    -0.204000000
O     5.265000000    -0.486000000    -1.906000000
H     4.832000000     0.163000000    -2.460000000
H     5.945000000     0.007000000    -1.447000000
O    -5.797000000    -0.169000000     2.813000000
H    -6.621000000     0.311000000     2.891000000
H    -6.011000000    -1.059000000     3.093000000
O    -2.331000000    -2.774000000     1.474000000
H    -2.004000000    -3.188000000     0.675000000
H    -2.605000000    -3.505000000     2.028000000
O     0.457000000    -0.614000000    -8.005000000
H     0.024000000    -0.432000000    -7.171000000
H     1.374000000    -0.760000000    -7.772000000
O     0.442000000     5.133000000     6.280000000
H     0.289000000     4.316000000     5.803000000
H     1.071000000     4.898000000     6.962000000
O    -5.867000000     3.138000000     3.508000000
H    -6.245000000     3.487000000     2.701000000
H    -4.986000000     2.858000000     3.259000000
O     4.466000000    -3.979000000    -4.706000000
H     5.414000000    -4.083000000    -4.785000000
H     4.203000000    -4.647000000    -4.073000000
O    -1.278000000    -4.626000000    -0.911000000
H    -0.324000000    -4.583000000    -0.844000000
H    -1.463000000    -4.430000000    -1.829000000
O    -1.315000000     3.360000000     4.743000000
H    -1.441000000     3.966000000     4.013000000
H    -1.473000000     2.494000000     4.366000000
O    -7.054000000     1.794000000     0.425000000
H    -6.310000000     1.238000000     0.193000000
H    -7.700000000     1.627000000    -0.261000000
O     1.600000000    -0.761000000     7.813000000
H     2.142000000    -1.110000000     7.105000000
H     0.997000000    -0.158000000     7.379000000
O    -0.458000000     0.701000000     6.351000000
H    -0.206000000     0.280000000     5.529000000
H    -0.734000000     1.581000000     6.094000000
O     3.014000000     0.000000000     3.750000000
H     3.354000000     0.739000000     4.255000000
H     2.067000000     0.032000000     3.885000000
O     2.841000000     3.647000000     2.593000000
H     3.202000000     3.294000000     3.406000000
H     2.257000000     4.351000000     2.876000000
O     3.490000000     2.456000000     5.028000000
H     4.228000000     2.994000000     5.314000000
H     2.914000000     2.414000000     5.792000000
O     3.835000000    -2.864000000    -1.781000000
H     3.834000000    -2.814000000    -2.737000000
H     4.468000000    -2.201000000    -1.507000000
O    -5.351000000    -0.232000000    -3.798000000
H    -6.236000000     0.044000000    -4.037000000
H    -4.980000000    -0.580000000    -4.609000000
O    -5.109000000     0.632000000    -1.182000000
H    -5.226000000     0.087000000    -1.960000000
H    -4.745000000     0.037000000    -0.526000000
O    -3.670000000     0.034000000     4.861000000
H    -4.380000000    -0.201000000     4.263000000
H    -2.952000000     0.302000000     4.287000000
O     1.523000000     4.283000000    -4.517000000
H     1.209000000     4.817000000    -3.788000000
H     0.735000000     3.860000000    -4.860000000
O     0.009000000    -2.686000000     4.525000000
H    -0.899000000    -2.972000000     4.625000000
H    -0.057000000    -1.803000000     4.160000000
O     2.259000000    -2.231000000    -4.830000000
H     1.305000000    -2.163000000    -4.799000000
H     2.455000000    -3.055000000    -4.383000000
O    -1.152000000    -0.028000000    -5.714000000
H    -2.005000000    -0.352000000    -6.003000000
H    -0.879000000    -0.644000000    -5.034000000
O     4.154000000     1.097000000    -3.849000000
H     4.498000000     1.793000000    -4.409000000
H     3.434000000     0.718000000    -4.352000000
O     3.422000000    -0.358000000    -6.281000000
H     3.070000000    -1.095000000    -5.782000000
H     4.362000000    -0.532000000    -6.334000000
O    -4.942000000     3.422000000    -1.544000000
H    -5.884000000     3.530000000    -1.414000000
H    -4.748000000     2.556000000    -1.186000000
O    -3.437000000     2.485000000     6.563000000
H    -3.518000000     3.250000000     5.994000000
H    -3.441000000     1.739000000     5.964000000
O    -3.144000000     5.706000000    -1.514000000
H    -2.907000000     5.786000000    -2.438000000
H    -3.831000000     5.040000000    -1.499000000
