144
-2825.39079
O    -2.099000000    -5.172000000    -0.426000000
H    -2.892000000    -4.886000000     0.027000000
H    -1.627000000    -4.362000000    -0.618000000
O     4.732000000    -0.423000000    -4.833000000
H     5.564000000    -0.869000000    -4.986000000
H     4.253000000    -1.005000000    -4.243000000
O    -1.767000000     4.118000000     0.714000000
H    -1.808000000     3.697000000    -0.144000000
H    -0.850000000     4.041000000     0.976000000
O     3.688000000     3.297000000    -0.442000000
H     3.559000000     3.130000000    -1.376000000
H     4.115000000     2.505000000    -0.114000000
O     0.856000000    -4.100000000    -0.221000000
H     1.772000000    -3.822000000    -0.254000000
H     0.814000000    -4.697000000     0.527000000
O    -1.180000000    -2.984000000    -4.057000000
H    -1.137000000    -2.720000000    -3.137000000
H    -2.099000000    -2.870000000    -4.296000000
O    -1.045000000     3.628000000     5.389000000
H    -1.780000000     4.030000000     4.925000000
H    -0.548000000     4.368000000     5.737000000
O    -2.998000000     2.953000000     2.926000000
H    -2.873000000     3.448000000     2.116000000
H    -2.837000000     2.042000000     2.677000000
O     2.646000000    -1.200000000     7.857000000
H     2.040000000    -0.697000000     7.314000000
H     3.483000000    -0.744000000     7.766000000
O    -2.399000000     0.832000000     8.306000000
H    -2.265000000    -0.113000000     8.379000000
H    -2.468000000     0.992000000     7.364000000
O     3.591000000    -2.238000000     4.739000000
H     2.848000000    -2.593000000     4.252000000
H     3.222000000    -1.518000000     5.251000000
O    -6.831000000     3.372000000     2.797000000
H    -6.473000000     2.488000000     2.714000000
H    -6.624000000     3.632000000     3.694000000
O     4.663000000    -1.919000000     1.254000000
H     5.192000000    -1.167000000     1.519000000
H     3.847000000    -1.823000000     1.745000000
O    -1.697000000    -1.981000000     7.835000000
H    -1.820000000    -1.967000000     6.886000000
H    -0.748000000    -1.952000000     7.954000000
O    -4.666000000     2.186000000    -2.166000000
H    -4.834000000     2.168000000    -3.109000000
H    -5.039000000     1.366000000    -1.842000000
O    -0.131000000     2.556000000    -5.615000000
H     0.321000000     2.066000000    -6.302000000
H    -0.862000000     1.993000000    -5.359000000
O     5.208000000     0.437000000     2.614000000
H     5.503000000     0.962000000     1.870000000
H     4.812000000     1.071000000     3.212000000
O     0.904000000    -5.872000000    -2.960000000
H     1.461000000    -6.303000000    -2.312000000
H     0.813000000    -4.975000000    -2.640000000
O    -4.306000000    -1.644000000     3.216000000
H    -3.724000000    -0.959000000     2.888000000
H    -4.172000000    -2.379000000     2.617000000
O     0.992000000     3.602000000     0.671000000
H     1.351000000     2.948000000     1.271000000
H     1.642000000     3.669000000    -0.028000000
O    -3.980000000    -2.837000000     0.666000000
H    -4.659000000    -3.132000000     0.059000000
H    -3.720000000    -1.978000000     0.335000000
O    -1.415000000    -3.374000000     1.947000000
H    -1.072000000    -2.671000000     1.396000000
H    -2.334000000    -3.453000000     1.692000000
O    -0.323000000     0.661000000    -7.612000000
H     0.280000000     0.020000000    -7.235000000
H    -1.087000000     0.147000000    -7.872000000
O    -0.230000000     2.598000000     8.008000000
H    -0.551000000     2.955000000     7.180000000
H    -0.723000000     1.786000000     8.126000000
O    -5.660000000     0.658000000     1.248000000
H    -6.217000000     0.761000000     0.477000000
H    -6.150000000     0.069000000     1.821000000
O     2.646000000     6.112000000    -0.698000000
H     2.833000000     5.189000000    -0.527000000
H     1.740000000     6.229000000    -0.411000000
O    -5.370000000    -3.469000000     5.280000000
H    -5.296000000    -4.028000000     6.054000000
H    -4.513000000    -3.050000000     5.204000000
O     3.388000000    -2.834000000    -3.788000000
H     2.587000000    -2.484000000    -4.176000000
H     3.665000000    -3.524000000    -4.391000000
O    -1.180000000    -2.710000000    -1.220000000
H    -0.288000000    -3.015000000    -1.057000000
H    -1.114000000    -1.755000000    -1.202000000
O    -2.621000000     1.177000000     5.731000000
H    -2.193000000     2.018000000     5.569000000
H    -2.549000000     0.708000000     4.900000000
O     0.843000000     0.142000000     5.977000000
H     0.444000000    -0.118000000     5.147000000
H     0.971000000     1.087000000     5.895000000
O     3.687000000     2.311000000     4.176000000
H     2.831000000     2.005000000     4.476000000
H     3.489000000     2.895000000     3.444000000
O     0.980000000     2.079000000     3.354000000
H     0.740000000     2.971000000     3.607000000
H     0.148000000     1.606000000     3.330000000
O     3.468000000    -3.294000000    -0.927000000
H     3.419000000    -3.204000000    -1.878000000
H     4.145000000    -2.673000000    -0.661000000
O    -5.377000000     1.194000000    -4.824000000
H    -5.923000000     0.438000000    -4.612000000
H    -5.584000000     1.390000000    -5.738000000
O    -4.716000000    -1.911000000    -1.861000000
H    -4.296000000    -1.140000000    -2.244000000
H    -5.408000000    -2.140000000    -2.481000000
O    -2.312000000    -1.816000000     5.245000000
H    -3.090000000    -1.369000000     4.911000000
H    -1.613000000    -1.560000000     4.643000000
O     0.827000000     3.254000000    -2.974000000
H    -0.035000000     3.462000000    -2.613000000
H     0.640000000     2.827000000    -3.810000000
O    -0.532000000    -5.150000000     3.832000000
H    -1.137000000    -4.688000000     3.252000000
H    -0.829000000    -6.060000000     3.811000000
O     1.087000000    -2.643000000     3.468000000
H     0.352000000    -3.257000000     3.485000000
H     0.676000000    -1.778000000     3.492000000
O     1.032000000    -2.173000000    -5.642000000
H     0.233000000    -2.262000000    -5.124000000
H     0.941000000    -2.825000000    -6.337000000
O    -2.488000000     0.861000000    -4.865000000
H    -2.593000000     0.092000000    -5.425000000
H    -3.382000000     1.140000000    -4.671000000
O     5.425000000     1.486000000    -2.716000000
H     5.164000000     0.761000000    -3.284000000
H     4.933000000     2.238000000    -3.045000000
O     3.544000000     3.373000000    -3.313000000
H     3.744000000     4.096000000    -3.907000000
H     2.589000000     3.300000000    -3.338000000
O     5.674000000     1.283000000    -0.055000000
H     5.631000000     1.256000000    -1.011000000
H     6.608000000     1.209000000     0.144000000
O     2.380000000    -0.236000000    -6.994000000
H     1.847000000    -0.851000000    -6.489000000
H     3.207000000    -0.186000000    -6.516000000
O    -4.952000000     2.163000000     4.664000000
H    -4.323000000     1.574000000     5.082000000
H    -4.460000000     2.572000000     3.952000000
O    -2.589000000     3.941000000    -2.292000000
H    -2.762000000     4.195000000    -3.199000000
H    -3.329000000     3.382000000    -2.055000000
