144
-2851.81350
O    -3.046000000    -6.600000000     1.313000000
H    -2.503000000    -6.660000000     2.098000000
H    -2.931000000    -7.444000000     0.877000000
O     3.512000000     2.628000000    -1.078000000
H     3.621000000     1.689000000    -1.228000000
H     3.353000000     2.993000000    -1.948000000
O     3.524000000    -1.712000000     6.257000000
H     3.331000000    -1.138000000     5.516000000
H     4.459000000    -1.586000000     6.420000000
O     3.173000000     4.362000000     0.958000000
H     4.019000000     4.810000000     0.941000000
H     3.141000000     3.879000000     0.133000000
O    -2.282000000     1.609000000     0.560000000
H    -2.666000000     1.744000000    -0.306000000
H    -1.461000000     1.147000000     0.388000000
O     0.638000000    -0.861000000     5.779000000
H     0.362000000    -1.520000000     6.416000000
H     0.673000000    -1.333000000     4.947000000
O     1.799000000     2.536000000     5.397000000
H     2.138000000     1.646000000     5.497000000
H     1.029000000     2.564000000     5.964000000
O    -0.327000000    -4.145000000    -2.711000000
H    -0.168000000    -4.165000000    -1.767000000
H    -1.279000000    -4.180000000    -2.794000000
O     0.624000000     5.862000000    -2.700000000
H    -0.228000000     5.857000000    -2.264000000
H     0.685000000     5.003000000    -3.118000000
O     0.334000000     3.493000000    -4.935000000
H    -0.513000000     3.891000000    -4.731000000
H     0.113000000     2.652000000    -5.335000000
O     1.651000000    -3.715000000     6.373000000
H     2.400000000    -3.130000000     6.259000000
H     1.021000000    -3.202000000     6.879000000
O    -5.397000000    -2.772000000     1.852000000
H    -4.935000000    -3.307000000     2.497000000
H    -4.853000000    -1.989000000     1.756000000
O     3.158000000     0.140000000     4.112000000
H     3.428000000     0.952000000     3.683000000
H     3.194000000    -0.519000000     3.419000000
O     2.550000000    -0.973000000    -0.768000000
H     1.911000000    -0.316000000    -0.491000000
H     2.444000000    -1.689000000    -0.142000000
O     1.094000000     4.189000000     2.589000000
H     1.534000000     3.593000000     3.196000000
H     1.707000000     4.286000000     1.861000000
O     3.293000000     4.035000000    -3.587000000
H     2.444000000     4.291000000    -3.949000000
H     3.852000000     4.800000000    -3.724000000
O     3.836000000    -4.360000000     2.794000000
H     3.278000000    -4.932000000     2.268000000
H     4.018000000    -4.865000000     3.586000000
O    -1.609000000     0.372000000     4.638000000
H    -0.878000000    -0.075000000     5.065000000
H    -2.251000000    -0.319000000     4.476000000
O    -1.597000000    -2.832000000     4.926000000
H    -0.893000000    -2.532000000     4.351000000
H    -2.133000000    -3.399000000     4.371000000
O    -2.935000000     1.360000000    -4.511000000
H    -3.797000000     1.003000000    -4.726000000
H    -2.382000000     1.112000000    -5.252000000
O     2.536000000    -5.989000000     1.086000000
H     2.470000000    -6.666000000     1.760000000
H     3.188000000    -6.326000000     0.472000000
O    -2.591000000     5.406000000    -1.981000000
H    -3.285000000     4.845000000    -1.634000000
H    -2.757000000     6.262000000    -1.587000000
O     0.450000000    -4.906000000     4.149000000
H     0.108000000    -4.267000000     3.524000000
H     0.843000000    -4.376000000     4.843000000
O     4.413000000     2.895000000    -5.856000000
H     4.308000000     3.646000000    -6.440000000
H     4.349000000     3.265000000    -4.976000000
O     6.138000000     1.066000000     1.236000000
H     5.324000000     1.272000000     1.695000000
H     6.171000000     1.693000000     0.513000000
O     0.655000000    -4.397000000    -0.172000000
H     1.349000000    -4.862000000     0.296000000
H     0.063000000    -4.095000000     0.516000000
O    -2.970000000    -5.802000000     5.046000000
H    -3.508000000    -5.239000000     5.603000000
H    -2.894000000    -5.322000000     4.222000000
O     2.107000000     6.796000000    -0.804000000
H     1.405000000     6.445000000    -1.352000000
H     1.983000000     7.745000000    -0.836000000
O     2.922000000    -2.074000000     2.322000000
H     3.204000000    -2.981000000     2.438000000
H     2.133000000    -1.998000000     2.859000000
O    -3.895000000    -0.371000000     1.874000000
H    -3.117000000     0.115000000     1.604000000
H    -4.559000000     0.303000000     2.023000000
O    -2.963000000    -4.269000000     2.608000000
H    -3.261000000    -4.871000000     1.926000000
H    -2.102000000    -3.975000000     2.309000000
O     4.325000000     2.436000000     3.227000000
H     4.541000000     3.022000000     3.951000000
H     4.260000000     3.011000000     2.464000000
O     0.851000000    -1.985000000    -3.788000000
H     0.903000000    -1.314000000    -3.107000000
H     0.426000000    -2.729000000    -3.361000000
O    -2.193000000     4.189000000    -4.415000000
H    -2.386000000     3.259000000    -4.300000000
H    -2.295000000     4.566000000    -3.541000000
O    -0.890000000    -2.578000000     7.483000000
H    -1.173000000    -3.130000000     8.212000000
H    -1.294000000    -2.976000000     6.711000000
O     1.708000000     1.615000000    -7.188000000
H     2.022000000     1.827000000    -8.067000000
H     2.504000000     1.523000000    -6.665000000
O    -1.104000000    -1.110000000    -5.691000000
H    -0.253000000    -1.200000000    -5.262000000
H    -1.057000000    -0.266000000    -6.141000000
O    -3.294000000     1.800000000    -1.787000000
H    -3.977000000     2.471000000    -1.791000000
H    -2.986000000     1.767000000    -2.693000000
O    -3.751000000     3.083000000     2.395000000
H    -3.231000000     3.138000000     3.197000000
H    -3.156000000     2.703000000     1.749000000
O    -2.977000000    -2.556000000    -4.146000000
H    -2.289000000    -2.043000000    -4.570000000
H    -3.536000000    -2.848000000    -4.866000000
O    -1.362000000     2.933000000     3.913000000
H    -0.550000000     3.217000000     3.493000000
H    -1.210000000     2.013000000     4.130000000
O    -4.908000000    -0.369000000    -0.862000000
H    -4.443000000    -0.502000000    -0.036000000
H    -4.339000000     0.213000000    -1.366000000
O     6.251000000     2.642000000    -0.864000000
H     5.349000000     2.838000000    -1.117000000
H     6.735000000     3.443000000    -1.062000000
O    -3.107000000    -5.226000000    -1.285000000
H    -3.511000000    -4.359000000    -1.261000000
H    -3.483000000    -5.688000000    -0.536000000
O     3.316000000    -3.565000000    -1.951000000
H     3.193000000    -2.634000000    -2.137000000
H     2.449000000    -3.950000000    -2.074000000
O    -4.411000000    -2.736000000    -1.973000000
H    -4.827000000    -1.960000000    -1.596000000
H    -3.763000000    -2.386000000    -2.585000000
O     0.012000000     5.874000000     0.653000000
H     0.183000000     5.275000000     1.379000000
H     0.880000000     6.103000000     0.321000000
O    -1.019000000     1.541000000    -6.687000000
H    -1.694000000     1.590000000    -7.363000000
H    -0.207000000     1.389000000    -7.170000000
