144
-2844.24233
O     1.647000000    -6.630000000     0.518000000
H     1.888000000    -7.366000000     1.079000000
H     1.178000000    -6.030000000     1.098000000
O     4.708000000     0.205000000    -2.776000000
H     3.984000000    -0.078000000    -3.334000000
H     5.151000000     0.885000000    -3.285000000
O     5.074000000    -0.267000000     2.356000000
H     4.410000000    -0.533000000     2.992000000
H     4.625000000    -0.304000000     1.511000000
O     2.667000000     4.723000000    -0.175000000
H     3.207000000     5.448000000    -0.488000000
H     2.796000000     4.030000000    -0.823000000
O    -1.214000000     2.795000000     2.509000000
H    -0.457000000     3.345000000     2.308000000
H    -1.914000000     3.415000000     2.710000000
O    -0.200000000     0.525000000     4.904000000
H     0.295000000     1.125000000     4.347000000
H    -0.610000000    -0.087000000     4.292000000
O     2.075000000     1.849000000     6.364000000
H     2.595000000     2.014000000     5.578000000
H     1.691000000     0.984000000     6.221000000
O     1.495000000    -2.184000000    -2.776000000
H     1.046000000    -1.422000000    -2.411000000
H     2.067000000    -1.823000000    -3.453000000
O     2.554000000     3.727000000    -4.213000000
H     1.994000000     4.501000000    -4.268000000
H     1.968000000     2.994000000    -4.404000000
O    -3.367000000     1.806000000     4.947000000
H    -3.307000000     1.190000000     5.677000000
H    -3.685000000     2.617000000     5.344000000
O    -1.435000000     3.320000000    -4.199000000
H    -1.754000000     2.579000000    -3.685000000
H    -2.223000000     3.696000000    -4.592000000
O     2.004000000    -4.958000000     5.511000000
H     2.847000000    -5.159000000     5.917000000
H     1.998000000    -4.004000000     5.432000000
O    -4.139000000    -1.913000000     2.509000000
H    -3.267000000    -2.304000000     2.444000000
H    -3.977000000    -0.970000000     2.533000000
O     3.783000000     0.061000000     0.038000000
H     3.805000000     0.198000000    -0.909000000
H     2.859000000    -0.088000000     0.237000000
O     1.032000000     4.449000000     2.199000000
H     0.988000000     5.374000000     2.442000000
H     1.497000000     4.443000000     1.362000000
O    -0.775000000     6.489000000    -1.455000000
H    -1.286000000     5.855000000    -0.952000000
H    -0.743000000     7.267000000    -0.898000000
O    -4.414000000    -3.221000000    -1.098000000
H    -4.155000000    -2.441000000    -1.589000000
H    -3.663000000    -3.411000000    -0.536000000
O     0.295000000     2.408000000    -5.902000000
H     0.740000000     2.918000000    -6.579000000
H    -0.373000000     3.001000000    -5.556000000
O    -2.126000000    -5.777000000    -1.592000000
H    -2.446000000    -5.286000000    -0.835000000
H    -2.278000000    -6.694000000    -1.364000000
O     0.179000000    -0.473000000     7.429000000
H     0.055000000     0.274000000     8.015000000
H    -0.134000000    -0.165000000     6.579000000
O    -1.973000000    -4.420000000     4.821000000
H    -1.655000000    -3.734000000     4.235000000
H    -1.374000000    -4.395000000     5.568000000
O    -4.355000000     1.919000000    -4.261000000
H    -3.917000000     1.987000000    -5.109000000
H    -4.748000000     1.046000000    -4.264000000
O    -5.865000000    -3.390000000     3.883000000
H    -5.960000000    -4.284000000     3.557000000
H    -5.310000000    -2.956000000     3.234000000
O    -2.422000000     4.344000000    -0.141000000
H    -1.873000000     3.651000000     0.225000000
H    -3.086000000     3.879000000    -0.650000000
O     0.337000000    -5.801000000     2.807000000
H     0.654000000    -5.537000000     3.670000000
H    -0.264000000    -5.102000000     2.548000000
O    -6.073000000     0.692000000     1.014000000
H    -5.130000000     0.744000000     0.858000000
H    -6.312000000    -0.193000000     0.741000000
O     5.809000000     2.142000000     2.850000000
H     4.996000000     2.611000000     3.039000000
H     5.538000000     1.233000000     2.726000000
O     2.860000000    -3.107000000    -0.437000000
H     2.508000000    -3.988000000    -0.310000000
H     2.325000000    -2.734000000    -1.138000000
O    -1.321000000    -7.808000000     3.880000000
H    -0.986000000    -7.900000000     4.772000000
H    -0.707000000    -7.211000000     3.454000000
O     3.426000000    -1.709000000     4.207000000
H     3.924000000    -2.523000000     4.125000000
H     2.621000000    -1.964000000     4.657000000
O    -3.555000000     5.924000000    -2.742000000
H    -3.609000000     5.151000000    -2.181000000
H    -2.957000000     6.513000000    -2.282000000
O    -3.375000000     1.140000000     2.365000000
H    -2.437000000     1.334000000     2.364000000
H    -3.631000000     1.203000000     3.285000000
O    -3.423000000    -6.135000000     3.140000000
H    -3.203000000    -7.014000000     3.451000000
H    -3.064000000    -5.549000000     3.806000000
O     2.424000000     2.756000000     3.774000000
H     2.913000000     3.526000000     4.063000000
H     1.747000000     3.105000000     3.194000000
O     3.066000000    -0.908000000    -4.658000000
H     3.887000000    -1.224000000    -5.036000000
H     2.529000000    -0.673000000    -5.415000000
O    -6.155000000    -2.095000000     0.865000000
H    -5.773000000    -2.533000000     0.104000000
H    -5.440000000    -2.052000000     1.500000000
O    -4.312000000     3.142000000    -1.789000000
H    -4.349000000     2.667000000    -2.619000000
H    -5.198000000     3.072000000    -1.434000000
O    -0.341000000    -4.793000000     6.858000000
H    -0.195000000    -4.644000000     7.792000000
H     0.537000000    -4.900000000     6.493000000
O    -2.464000000    -2.268000000    -4.880000000
H    -2.086000000    -2.762000000    -4.153000000
H    -2.007000000    -1.428000000    -4.862000000
O     1.004000000    -2.197000000     5.406000000
H     0.396000000    -2.028000000     4.686000000
H     0.606000000    -1.765000000     6.162000000
O    -3.548000000    -0.534000000    -2.010000000
H    -2.934000000    -1.168000000    -2.379000000
H    -3.110000000     0.311000000    -2.111000000
O    -3.168000000    -4.653000000     0.843000000
H    -2.479000000    -4.115000000     1.234000000
H    -3.341000000    -5.332000000     1.495000000
O     0.981000000    -4.871000000    -3.096000000
H     1.786000000    -4.375000000    -2.949000000
H     1.011000000    -5.106000000    -4.023000000
O    -1.399000000    -3.264000000    -2.635000000
H    -1.682000000    -4.070000000    -2.203000000
H    -0.498000000    -3.441000000    -2.905000000
O    -3.791000000    -0.299000000     6.901000000
H    -4.736000000    -0.442000000     6.858000000
H    -3.411000000    -1.170000000     6.786000000
O    -1.112000000     0.195000000    -4.872000000
H    -1.785000000     0.757000000    -5.257000000
H    -0.284000000     0.591000000    -5.145000000
O     0.312000000     5.625000000    -4.111000000
H    -0.374000000     4.977000000    -3.951000000
H     0.315000000     6.169000000    -3.324000000
O     5.098000000     2.249000000    -4.741000000
H     4.996000000     2.155000000    -5.688000000
H     4.300000000     2.697000000    -4.458000000
