144
-2786.25334
O     4.092000000     0.472000000    -3.926000000
H     4.866000000     0.757000000    -4.413000000
H     4.072000000    -0.477000000    -4.043000000
O    -0.258000000     1.075000000     4.967000000
H    -0.015000000     0.299000000     4.461000000
H     0.096000000     1.809000000     4.465000000
O    -5.797000000     1.284000000    -1.682000000
H    -6.661000000     1.197000000    -2.083000000
H    -5.744000000     2.204000000    -1.423000000
O     0.020000000     3.452000000     3.152000000
H     0.228000000     3.474000000     2.218000000
H    -0.836000000     3.875000000     3.218000000
O     2.760000000     3.377000000     4.617000000
H     2.137000000     3.524000000     5.329000000
H     2.484000000     3.982000000     3.929000000
O    -0.838000000    -5.014000000    -0.409000000
H    -1.681000000    -4.662000000    -0.694000000
H    -0.849000000    -5.926000000    -0.699000000
O     1.051000000     2.775000000     7.005000000
H     0.546000000     2.031000000     6.676000000
H     0.420000000     3.494000000     7.043000000
O    -2.699000000     1.369000000     6.079000000
H    -2.505000000     2.289000000     5.898000000
H    -2.248000000     0.888000000     5.386000000
O     0.293000000    -2.169000000     6.050000000
H     0.373000000    -1.401000000     6.615000000
H     0.157000000    -1.810000000     5.174000000
O    -5.650000000     0.050000000     4.294000000
H    -6.327000000    -0.598000000     4.101000000
H    -5.085000000     0.043000000     3.521000000
O     4.291000000     3.455000000     0.874000000
H     4.003000000     2.796000000     0.243000000
H     3.481000000     3.862000000     1.182000000
O     1.898000000    -4.511000000     0.392000000
H     1.025000000    -4.771000000     0.100000000
H     1.738000000    -3.856000000     1.072000000
O    -4.136000000    -5.776000000     1.402000000
H    -5.069000000    -5.853000000     1.601000000
H    -3.953000000    -4.839000000     1.472000000
O    -0.636000000     4.564000000    -0.645000000
H    -0.337000000     3.848000000    -0.086000000
H     0.100000000     4.732000000    -1.234000000
O     4.851000000     4.914000000    -1.754000000
H     5.391000000     4.337000000    -1.214000000
H     4.392000000     5.470000000    -1.124000000
O     0.922000000    -4.324000000    -2.620000000
H     0.273000000    -4.608000000    -1.977000000
H     0.532000000    -4.542000000    -3.466000000
O    -3.916000000     0.164000000     2.238000000
H    -3.266000000    -0.463000000     2.556000000
H    -3.490000000     1.016000000     2.328000000
O    -1.825000000     2.089000000     0.831000000
H    -2.188000000     2.006000000    -0.050000000
H    -1.091000000     1.474000000     0.847000000
O    -2.337000000    -2.527000000     5.322000000
H    -2.088000000    -2.221000000     4.449000000
H    -1.505000000    -2.716000000     5.755000000
O    -0.771000000     6.284000000    -6.075000000
H    -0.130000000     6.995000000    -6.053000000
H    -0.283000000     5.512000000    -5.788000000
O     1.872000000     5.332000000    -1.662000000
H     1.666000000     6.223000000    -1.942000000
H     2.649000000     5.095000000    -2.168000000
O     5.491000000    -0.587000000     2.662000000
H     5.321000000     0.235000000     2.201000000
H     6.317000000    -0.438000000     3.121000000
O     0.192000000    -4.880000000     6.600000000
H    -0.612000000    -4.995000000     7.105000000
H     0.243000000    -3.938000000     6.441000000
O     1.675000000    -3.302000000     3.173000000
H     1.438000000    -4.165000000     3.514000000
H     1.109000000    -2.693000000     3.648000000
O     1.944000000     4.629000000     1.270000000
H     2.349000000     4.922000000     0.453000000
H     1.175000000     5.189000000     1.371000000
O    -0.618000000    -0.022000000    -6.243000000
H    -0.366000000    -0.945000000    -6.218000000
H     0.211000000     0.454000000    -6.212000000
O    -2.767000000     4.014000000     2.721000000
H    -2.574000000     3.371000000     2.038000000
H    -3.719000000     3.987000000     2.812000000
O     5.473000000     3.002000000    -3.711000000
H     5.111000000     3.761000000    -3.253000000
H     5.382000000     3.216000000    -4.639000000
O    -1.160000000    -4.563000000     2.802000000
H    -1.609000000    -4.856000000     2.010000000
H    -1.260000000    -3.611000000     2.796000000
O    -3.081000000     3.269000000    -4.913000000
H    -2.657000000     3.124000000    -4.067000000
H    -3.844000000     2.692000000    -4.900000000
O     3.057000000    -2.156000000     5.947000000
H     3.073000000    -1.213000000     5.783000000
H     2.135000000    -2.398000000     5.867000000
O    -3.390000000    -4.774000000    -1.677000000
H    -4.249000000    -4.365000000    -1.568000000
H    -3.273000000    -4.837000000    -2.624000000
O    -3.967000000    -0.296000000    -3.125000000
H    -4.504000000     0.418000000    -2.782000000
H    -3.793000000    -0.049000000    -4.033000000
O     3.411000000     0.689000000     5.502000000
H     3.198000000     1.265000000     6.236000000
H     3.203000000     1.206000000     4.723000000
O     1.089000000     4.581000000    -5.505000000
H     1.869000000     4.446000000    -4.967000000
H     1.280000000     4.121000000    -6.323000000
O    -5.663000000    -0.847000000     0.243000000
H    -5.173000000    -0.419000000     0.946000000
H    -5.781000000    -0.163000000    -0.417000000
O    -1.885000000    -3.364000000    -4.686000000
H    -2.561000000    -3.075000000    -5.299000000
H    -1.087000000    -2.927000000    -4.985000000
O    -3.347000000    -0.124000000    -5.814000000
H    -3.602000000     0.416000000    -6.562000000
H    -2.393000000    -0.054000000    -5.782000000
O    -5.324000000    -2.478000000    -2.201000000
H    -5.106000000    -2.294000000    -1.288000000
H    -4.746000000    -1.906000000    -2.706000000
O     4.319000000    -3.109000000     3.125000000
H     4.688000000    -2.226000000     3.123000000
H     3.372000000    -2.974000000     3.105000000
O     4.409000000     1.542000000    -1.254000000
H     4.858000000     2.111000000    -1.879000000
H     4.002000000     0.866000000    -1.796000000
O     2.735000000    -2.487000000    -2.205000000
H     2.020000000    -1.880000000    -2.013000000
H     2.298000000    -3.296000000    -2.469000000
O    -4.338000000    -1.847000000     7.302000000
H    -3.519000000    -1.772000000     6.812000000
H    -4.723000000    -0.972000000     7.260000000
O    -3.839000000    -3.022000000     1.603000000
H    -4.550000000    -2.405000000     1.426000000
H    -3.091000000    -2.468000000     1.823000000
O    -2.752000000     3.257000000    -1.644000000
H    -3.460000000     3.824000000    -1.948000000
H    -2.019000000     3.852000000    -1.487000000
O     1.866000000     0.875000000    -5.850000000
H     2.456000000     0.944000000    -6.600000000
H     2.438000000     0.950000000    -5.086000000
O     6.025000000    -0.518000000    -0.432000000
H     5.963000000    -0.828000000     0.471000000
H     5.464000000     0.257000000    -0.458000000
O     5.494000000     2.968000000     3.615000000
H     5.121000000     3.802000000     3.901000000
H     4.820000000     2.584000000     3.055000000
