144
-2810.90414
O    -3.521000000    -6.435000000     1.047000000
H    -4.006000000    -6.018000000     1.759000000
H    -2.644000000    -6.056000000     1.100000000
O     4.169000000     1.588000000    -4.285000000
H     4.645000000     1.577000000    -5.116000000
H     4.382000000     0.749000000    -3.877000000
O     1.361000000     2.208000000     4.295000000
H     0.859000000     1.412000000     4.120000000
H     0.781000000     2.742000000     4.840000000
O    -1.101000000     3.259000000     5.624000000
H    -1.777000000     3.114000000     6.286000000
H    -1.556000000     3.712000000     4.914000000
O    -0.852000000    -2.840000000    -3.685000000
H    -1.725000000    -2.986000000    -4.048000000
H    -0.378000000    -2.377000000    -4.376000000
O     1.317000000     2.050000000     7.521000000
H     0.445000000     2.038000000     7.126000000
H     1.375000000     2.906000000     7.946000000
O     5.930000000    -1.406000000    -1.259000000
H     6.582000000    -1.835000000    -0.705000000
H     5.626000000    -0.662000000    -0.739000000
O     0.053000000    -0.536000000     6.457000000
H    -0.801000000    -0.954000000     6.347000000
H     0.267000000    -0.195000000     5.588000000
O    -6.336000000     0.831000000     5.018000000
H    -6.863000000     0.038000000     4.922000000
H    -5.434000000     0.535000000     4.902000000
O     3.421000000     2.464000000     1.408000000
H     3.993000000     3.210000000     1.226000000
H     2.731000000     2.821000000     1.967000000
O    -1.837000000    -3.691000000     7.970000000
H    -1.775000000    -3.205000000     7.147000000
H    -2.626000000    -4.224000000     7.875000000
O     3.204000000    -1.445000000     0.605000000
H     3.533000000    -0.670000000     0.149000000
H     2.928000000    -1.119000000     1.462000000
O     1.695000000     5.581000000    -2.425000000
H     2.630000000     5.620000000    -2.223000000
H     1.602000000     4.808000000    -2.982000000
O    -0.553000000    -4.306000000    -1.368000000
H    -0.824000000    -5.186000000    -1.627000000
H    -0.837000000    -3.745000000    -2.090000000
O    -3.650000000     0.902000000     3.935000000
H    -2.983000000     0.287000000     3.630000000
H    -3.155000000     1.673000000     4.214000000
O     1.197000000    -5.494000000     2.219000000
H     2.039000000    -5.604000000     1.778000000
H     1.283000000    -4.671000000     2.700000000
O    -2.795000000     2.401000000    -1.357000000
H    -2.059000000     2.996000000    -1.214000000
H    -2.479000000     1.551000000    -1.052000000
O    -2.462000000    -2.110000000     5.503000000
H    -2.309000000    -1.275000000     5.062000000
H    -2.496000000    -2.753000000     4.795000000
O     4.256000000    -2.775000000    -3.046000000
H     4.767000000    -2.100000000    -2.599000000
H     3.518000000    -2.944000000    -2.460000000
O    -1.286000000     4.035000000    -6.046000000
H    -1.902000000     4.164000000    -5.325000000
H    -1.100000000     3.096000000    -6.038000000
O     5.221000000     1.357000000     3.043000000
H     4.435000000     1.547000000     2.530000000
H     5.932000000     1.767000000     2.551000000
O    -1.115000000    -4.936000000     1.150000000
H    -0.311000000    -5.383000000     1.414000000
H    -0.906000000    -4.547000000     0.301000000
O     2.283000000    -1.210000000     3.278000000
H     1.938000000    -1.981000000     3.729000000
H     1.586000000    -0.558000000     3.351000000
O     2.834000000     5.219000000     3.714000000
H     2.255000000     4.956000000     2.999000000
H     2.381000000     4.934000000     4.507000000
O     0.056000000     1.565000000    -6.594000000
H    -0.100000000     1.646000000    -7.535000000
H     0.835000000     1.013000000    -6.527000000
O    -2.824000000     3.744000000     3.392000000
H    -3.084000000     3.879000000     2.481000000
H    -3.618000000     3.925000000     3.897000000
O     2.480000000    -3.508000000    -5.174000000
H     2.938000000    -3.188000000    -4.397000000
H     3.178000000    -3.725000000    -5.791000000
O    -2.033000000    -3.666000000     3.343000000
H    -1.933000000    -4.251000000     2.592000000
H    -2.050000000    -2.788000000     2.962000000
O    -3.240000000     4.553000000    -3.249000000
H    -2.523000000     4.079000000    -2.827000000
H    -4.030000000     4.228000000    -2.818000000
O     0.561000000    -1.845000000    -5.858000000
H     1.094000000    -2.630000000    -5.729000000
H     0.722000000    -1.593000000    -6.767000000
O     2.548000000    -1.168000000     7.357000000
H     2.856000000    -0.335000000     6.999000000
H     1.644000000    -1.241000000     7.051000000
O    -4.325000000    -2.780000000    -0.814000000
H    -4.777000000    -3.318000000    -0.163000000
H    -4.703000000    -1.907000000    -0.706000000
O    -4.081000000     0.811000000    -3.254000000
H    -3.308000000     0.588000000    -3.772000000
H    -3.754000000     1.408000000    -2.581000000
O    -5.818000000     1.922000000     2.158000000
H    -5.047000000     1.519000000     2.558000000
H    -5.508000000     2.771000000     1.843000000
O     0.915000000    -3.474000000     4.216000000
H     0.019000000    -3.622000000     3.912000000
H     1.015000000    -4.066000000     4.962000000
O    -4.639000000    -4.084000000    -3.412000000
H    -4.270000000    -3.862000000    -2.557000000
H    -4.406000000    -3.344000000    -3.973000000
O    -4.838000000    -2.388000000     6.947000000
H    -5.046000000    -1.531000000     7.321000000
H    -3.962000000    -2.281000000     6.577000000
O     5.289000000    -2.464000000    -5.608000000
H     5.895000000    -1.725000000    -5.543000000
H     4.884000000    -2.518000000    -4.743000000
O    -1.939000000    -0.148000000    -5.250000000
H    -2.258000000     0.012000000    -6.138000000
H    -1.010000000     0.079000000    -5.285000000
O    -3.466000000    -2.070000000    -4.964000000
H    -4.327000000    -1.771000000    -5.255000000
H    -2.934000000    -1.275000000    -4.931000000
O    -5.314000000    -0.185000000    -0.336000000
H    -6.104000000    -0.020000000     0.179000000
H    -5.176000000     0.623000000    -0.830000000
O     5.016000000    -1.331000000     3.755000000
H     5.228000000    -0.460000000     3.418000000
H     4.061000000    -1.376000000     3.718000000
O     4.813000000     4.416000000     0.139000000
H     4.378000000     4.873000000    -0.580000000
H     5.723000000     4.709000000     0.094000000
O     2.356000000    -3.545000000    -1.143000000
H     2.587000000    -2.843000000    -0.535000000
H     1.403000000    -3.608000000    -1.084000000
O    -4.941000000    -2.072000000     2.825000000
H    -5.010000000    -2.003000000     1.873000000
H    -4.188000000    -1.527000000     3.051000000
O    -0.840000000     4.037000000    -1.488000000
H    -0.804000000     4.742000000    -0.841000000
H     0.026000000     4.043000000    -1.897000000
O     1.839000000     3.514000000    -4.144000000
H     2.699000000     3.130000000    -4.317000000
H     1.415000000     3.547000000    -5.001000000
O     5.177000000     0.816000000    -0.021000000
H     4.640000000     1.607000000     0.032000000
H     6.022000000     1.075000000     0.345000000
