144
-2798.58127
O    -5.836000000    -1.169000000     2.532000000
H    -5.497000000    -0.661000000     1.795000000
H    -5.933000000    -2.057000000     2.187000000
O     0.551000000    -0.256000000     4.811000000
H     0.633000000    -0.786000000     4.018000000
H    -0.198000000    -0.633000000     5.274000000
O    -4.311000000     0.884000000    -2.737000000
H    -5.214000000     0.998000000    -3.034000000
H    -4.089000000     1.717000000    -2.320000000
O     2.433000000     2.619000000     2.661000000
H     3.365000000     2.401000000     2.697000000
H     2.106000000     2.146000000     1.896000000
O     5.569000000    -0.393000000     4.472000000
H     5.852000000    -0.706000000     5.331000000
H     5.571000000    -1.175000000     3.920000000
O    -0.307000000    -4.209000000    -0.243000000
H    -0.386000000    -5.147000000    -0.415000000
H    -0.790000000    -3.793000000    -0.957000000
O     1.618000000     2.124000000     5.374000000
H     1.777000000     2.529000000     4.521000000
H     1.297000000     1.247000000     5.167000000
O    -1.546000000     2.291000000     6.248000000
H    -2.066000000     2.033000000     5.488000000
H    -0.642000000     2.286000000     5.933000000
O    -6.481000000     0.729000000     4.998000000
H    -6.643000000     1.673000000     5.021000000
H    -5.562000000     0.651000000     4.741000000
O     4.852000000     1.540000000    -1.645000000
H     4.412000000     1.185000000    -0.872000000
H     4.867000000     2.486000000    -1.499000000
O    -0.205000000    -3.585000000     5.585000000
H    -0.935000000    -3.364000000     6.163000000
H    -0.317000000    -3.010000000     4.828000000
O     2.491000000    -4.233000000     0.408000000
H     1.625000000    -4.136000000     0.014000000
H     2.349000000    -4.077000000     1.342000000
O    -3.493000000    -5.535000000     1.148000000
H    -4.158000000    -5.881000000     1.744000000
H    -2.699000000    -5.482000000     1.680000000
O    -0.224000000     5.227000000    -1.882000000
H    -0.263000000     6.160000000    -1.668000000
H    -0.359000000     5.193000000    -2.829000000
O     3.968000000    -2.728000000    -2.900000000
H     3.178000000    -2.578000000    -2.380000000
H     4.044000000    -1.949000000    -3.451000000
O    -3.320000000     0.259000000     4.460000000
H    -3.150000000    -0.419000000     3.806000000
H    -3.112000000     1.080000000     4.014000000
O    -2.216000000     2.542000000     0.737000000
H    -1.473000000     1.961000000     0.573000000
H    -2.415000000     2.923000000    -0.118000000
O    -4.009000000    -3.115000000     4.322000000
H    -3.531000000    -2.713000000     3.597000000
H    -3.916000000    -4.056000000     4.179000000
O     0.387000000     4.849000000    -6.006000000
H    -0.456000000     5.021000000    -5.586000000
H     0.868000000     4.318000000    -5.371000000
O     1.818000000     3.332000000    -4.269000000
H     2.248000000     3.971000000    -3.701000000
H     1.959000000     2.491000000    -3.834000000
O     1.824000000    -3.771000000     3.017000000
H     1.773000000    -3.960000000     3.954000000
H     1.134000000    -3.125000000     2.865000000
O     2.574000000     4.474000000    -1.572000000
H     1.654000000     4.710000000    -1.452000000
H     3.058000000     5.254000000    -1.299000000
O    -2.102000000    -2.232000000     7.268000000
H    -2.008000000    -1.856000000     8.144000000
H    -3.006000000    -2.037000000     7.020000000
O    -1.732000000     5.770000000    -4.520000000
H    -1.620000000     6.558000000    -5.051000000
H    -2.519000000     5.941000000    -4.002000000
O    -2.038000000     2.418000000     3.418000000
H    -2.255000000     2.561000000     2.497000000
H    -1.438000000     3.131000000     3.637000000
O     5.154000000    -4.889000000    -0.082000000
H     4.706000000    -5.369000000    -0.778000000
H     4.456000000    -4.412000000     0.367000000
O    -1.214000000    -5.048000000     2.551000000
H    -0.775000000    -4.857000000     1.722000000
H    -1.295000000    -4.197000000     2.982000000
O    -0.339000000    -7.196000000     4.018000000
H    -0.539000000    -6.349000000     3.619000000
H     0.382000000    -7.012000000     4.620000000
O     5.217000000     3.965000000    -0.306000000
H     5.085000000     4.673000000    -0.937000000
H     6.146000000     4.015000000    -0.081000000
O    -2.126000000    -2.934000000    -2.049000000
H    -2.602000000    -2.681000000    -1.258000000
H    -2.019000000    -2.117000000    -2.536000000
O    -1.834000000    -0.728000000    -3.840000000
H    -2.484000000    -0.962000000    -4.502000000
H    -2.128000000     0.118000000    -3.503000000
O     3.151000000    -0.967000000     5.757000000
H     3.848000000    -0.397000000     5.434000000
H     2.356000000    -0.631000000     5.343000000
O     0.462000000    -0.313000000    -7.753000000
H    -0.344000000     0.029000000    -8.139000000
H     1.059000000     0.435000000    -7.744000000
O    -6.357000000     1.471000000    -0.719000000
H    -7.145000000     0.967000000    -0.517000000
H    -5.711000000     1.172000000    -0.079000000
O    -4.398000000     0.956000000     1.310000000
H    -4.618000000     1.777000000     1.750000000
H    -3.480000000     1.057000000     1.059000000
O     0.884000000    -2.346000000    -2.696000000
H     0.307000000    -1.871000000    -2.098000000
H     0.646000000    -2.024000000    -3.565000000
O     0.254000000    -1.560000000    -5.298000000
H     0.497000000    -1.122000000    -6.113000000
H    -0.530000000    -1.098000000    -5.002000000
O    -4.723000000     2.494000000    -5.709000000
H    -5.430000000     2.140000000    -6.249000000
H    -4.202000000     1.729000000    -5.465000000
O    -0.599000000     5.990000000     1.142000000
H    -1.152000000     6.483000000     0.536000000
H    -0.716000000     5.076000000     0.883000000
O    -5.003000000    -4.814000000    -1.497000000
H    -4.328000000    -4.208000000    -1.194000000
H    -4.618000000    -5.682000000    -1.376000000
O     4.327000000    -0.004000000    -3.948000000
H     3.864000000     0.472000000    -4.638000000
H     4.218000000     0.540000000    -3.168000000
O    -4.764000000    -1.556000000     6.428000000
H    -4.809000000    -2.243000000     5.762000000
H    -4.473000000    -0.779000000     5.951000000
O    -3.486000000    -2.877000000     0.385000000
H    -3.567000000    -3.808000000     0.594000000
H    -3.082000000    -2.491000000     1.163000000
O     6.452000000    -2.238000000    -1.902000000
H     6.915000000    -1.862000000    -2.651000000
H     5.578000000    -2.437000000    -2.236000000
O    -3.033000000     4.235000000    -1.168000000
H    -3.639000000     4.653000000    -1.780000000
H    -2.169000000     4.371000000    -1.556000000
O     2.561000000     1.592000000    -6.207000000
H     3.120000000     2.016000000    -6.858000000
H     2.104000000     2.315000000    -5.777000000
O     7.091000000    -0.870000000     0.880000000
H     6.612000000    -1.329000000     1.570000000
H     6.564000000    -1.006000000     0.092000000
O     5.044000000     2.144000000     1.695000000
H     5.131000000     2.849000000     1.053000000
H     5.882000000     1.682000000     1.658000000
