144
-2826.86651
O     1.151000000     6.124000000     0.640000000
H     1.296000000     5.259000000     1.023000000
H     0.961000000     6.689000000     1.389000000
O     3.261000000     5.038000000    -1.148000000
H     2.505000000     5.256000000    -0.602000000
H     3.163000000     5.590000000    -1.924000000
O    -6.841000000    -1.681000000     4.512000000
H    -6.027000000    -1.903000000     4.060000000
H    -6.563000000    -1.407000000     5.386000000
O     2.115000000     1.318000000     4.885000000
H     2.501000000     0.753000000     4.215000000
H     1.274000000     0.910000000     5.087000000
O     2.283000000    -2.644000000    -3.578000000
H     2.895000000    -2.545000000    -2.848000000
H     2.825000000    -2.951000000    -4.305000000
O     6.390000000    -0.521000000     1.152000000
H     7.239000000    -0.707000000     1.553000000
H     6.021000000    -1.383000000     0.960000000
O    -4.807000000     1.127000000     6.019000000
H    -4.393000000     0.388000000     5.573000000
H    -4.739000000     1.851000000     5.398000000
O     2.120000000     3.879000000     1.792000000
H     1.594000000     3.887000000     2.591000000
H     2.979000000     3.564000000     2.073000000
O     1.413000000    -3.526000000     5.085000000
H     1.818000000    -2.909000000     4.476000000
H     0.472000000    -3.392000000     4.971000000
O    -0.602000000    -5.208000000     1.806000000
H     0.291000000    -4.962000000     1.566000000
H    -0.565000000    -6.157000000     1.926000000
O    -5.668000000     3.532000000     3.967000000
H    -5.294000000     3.298000000     3.118000000
H    -6.353000000     2.880000000     4.115000000
O     2.682000000     0.773000000    -5.517000000
H     2.367000000     0.798000000    -4.614000000
H     3.543000000     0.357000000    -5.459000000
O    -1.764000000    -5.561000000    -2.032000000
H    -1.502000000    -5.499000000    -2.950000000
H    -2.279000000    -4.770000000    -1.876000000
O    -3.545000000    -0.929000000     5.235000000
H    -3.287000000    -0.976000000     4.314000000
H    -2.776000000    -1.233000000     5.716000000
O     0.599000000    -6.547000000    -0.866000000
H     0.430000000    -7.368000000    -1.329000000
H    -0.167000000    -6.005000000    -1.052000000
O    -3.686000000     5.214000000     1.405000000
H    -4.528000000     5.595000000     1.158000000
H    -3.870000000     4.282000000     1.525000000
O    -2.003000000    -5.802000000     5.553000000
H    -1.643000000    -4.948000000     5.313000000
H    -1.533000000    -6.424000000     4.998000000
O    -3.741000000     4.264000000    -1.803000000
H    -3.696000000     5.208000000    -1.953000000
H    -2.909000000     4.048000000    -1.384000000
O    -1.235000000    -3.355000000     3.958000000
H    -1.677000000    -2.632000000     3.513000000
H    -1.162000000    -4.038000000     3.291000000
O    -0.082000000    -0.047000000     4.820000000
H    -0.763000000     0.181000000     4.188000000
H    -0.544000000    -0.528000000     5.507000000
O    -7.860000000    -2.649000000     1.775000000
H    -8.538000000    -2.687000000     2.450000000
H    -7.038000000    -2.606000000     2.264000000
O     6.883000000    -1.458000000    -2.087000000
H     7.587000000    -1.652000000    -2.706000000
H     6.542000000    -0.610000000    -2.371000000
O     3.186000000    -2.470000000     2.572000000
H     3.061000000    -1.645000000     2.104000000
H     2.893000000    -3.142000000     1.956000000
O    -1.159000000     4.811000000    -0.400000000
H    -0.303000000     5.225000000    -0.286000000
H    -1.466000000     4.647000000     0.492000000
O     5.039000000     3.069000000    -1.827000000
H     4.200000000     3.528000000    -1.867000000
H     5.662000000     3.735000000    -1.536000000
O     0.109000000    -1.768000000    -5.027000000
H    -0.466000000    -2.414000000    -4.615000000
H     0.962000000    -1.913000000    -4.619000000
O    -3.191000000     5.640000000     4.507000000
H    -3.019000000     5.284000000     3.635000000
H    -3.578000000     4.910000000     4.991000000
O    -2.548000000     2.836000000     4.136000000
H    -2.489000000     1.885000000     4.045000000
H    -1.637000000     3.130000000     4.166000000
O    -2.593000000    -3.674000000     0.570000000
H    -1.771000000    -4.060000000     0.874000000
H    -2.891000000    -3.138000000     1.305000000
O    -4.003000000     2.477000000     1.776000000
H    -3.264000000     2.454000000     2.384000000
H    -3.884000000     1.702000000     1.226000000
O     6.058000000     0.731000000    -3.107000000
H     5.503000000     1.392000000    -2.693000000
H     5.810000000     0.756000000    -4.032000000
O    -3.427000000    -1.971000000    -1.392000000
H    -3.026000000    -2.439000000    -0.659000000
H    -3.442000000    -2.611000000    -2.104000000
O    -0.750000000     2.411000000    -4.352000000
H    -0.984000000     1.870000000    -3.598000000
H    -0.436000000     1.786000000    -5.007000000
O    -2.273000000     0.625000000    -2.532000000
H    -1.800000000     0.479000000    -1.713000000
H    -2.661000000    -0.226000000    -2.740000000
O    -0.061000000     0.620000000    -6.498000000
H    -0.337000000    -0.255000000    -6.225000000
H     0.895000000     0.586000000    -6.482000000
O     4.406000000    -2.592000000    -1.778000000
H     5.209000000    -2.081000000    -1.886000000
H     4.700000000    -3.423000000    -1.403000000
O     2.298000000    -4.903000000     0.573000000
H     1.755000000    -5.364000000    -0.067000000
H     2.937000000    -5.556000000     0.860000000
O    -4.610000000    -3.553000000     5.900000000
H    -4.347000000    -3.660000000     6.814000000
H    -4.538000000    -2.613000000     5.738000000
O    -5.063000000    -1.998000000     2.529000000
H    -5.469000000    -1.160000000     2.305000000
H    -4.130000000    -1.865000000     2.357000000
O    -1.477000000    -3.878000000    -4.330000000
H    -2.297000000    -3.755000000    -3.853000000
H    -1.706000000    -4.459000000    -5.055000000
O    -4.244000000    -5.435000000     3.834000000
H    -4.721000000    -4.624000000     4.013000000
H    -3.690000000    -5.561000000     4.605000000
O    -0.984000000     3.519000000     6.499000000
H    -1.693000000     3.259000000     5.910000000
H    -0.797000000     2.732000000     7.010000000
O     2.915000000    -0.109000000     1.435000000
H     2.134000000     0.093000000     0.921000000
H     3.520000000     0.608000000     1.243000000
O     0.421000000     3.195000000     4.014000000
H     0.384000000     3.568000000     4.895000000
H     1.073000000     2.497000000     4.077000000
O     4.800000000     1.796000000     0.605000000
H     4.616000000     2.219000000    -0.234000000
H     5.250000000     0.984000000     0.370000000
O    -1.617000000    -1.639000000     6.983000000
H    -2.295000000    -1.375000000     7.605000000
H    -0.919000000    -2.000000000     7.530000000
O    -3.914000000     0.459000000    -0.049000000
H    -4.373000000     0.609000000    -0.875000000
H    -3.532000000    -0.414000000    -0.142000000
O    -4.199000000    -6.069000000     1.107000000
H    -4.087000000    -6.391000000     2.002000000
H    -3.696000000    -5.255000000     1.081000000
