144
-2816.37077
O    -1.110000000    -2.111000000    -3.025000000
H    -0.282000000    -1.667000000    -2.841000000
H    -1.126000000    -2.851000000    -2.417000000
O    -5.028000000     4.611000000    -2.827000000
H    -4.696000000     3.766000000    -2.524000000
H    -5.455000000     4.415000000    -3.661000000
O     3.395000000     0.214000000    -5.939000000
H     3.419000000     0.399000000    -6.877000000
H     2.463000000     0.205000000    -5.720000000
O     3.627000000     0.926000000     0.624000000
H     3.130000000     0.108000000     0.662000000
H     2.960000000     1.608000000     0.546000000
O     5.909000000    -0.685000000    -0.212000000
H     5.322000000     0.045000000    -0.012000000
H     5.416000000    -1.465000000     0.042000000
O     3.698000000     5.652000000    -1.608000000
H     3.228000000     5.699000000    -0.775000000
H     4.499000000     5.170000000    -1.404000000
O    -0.833000000     2.107000000     3.649000000
H    -1.488000000     1.410000000     3.678000000
H    -1.049000000     2.670000000     4.392000000
O     0.850000000    -4.979000000     0.742000000
H     0.967000000    -5.731000000     1.322000000
H     0.383000000    -4.336000000     1.274000000
O    -2.760000000     0.153000000     4.168000000
H    -3.104000000    -0.328000000     4.920000000
H    -2.392000000    -0.523000000     3.599000000
O     0.459000000     0.416000000    -6.121000000
H    -0.136000000     0.009000000    -5.491000000
H     0.634000000    -0.271000000    -6.765000000
O     1.918000000    -1.970000000    -4.461000000
H     2.718000000    -1.606000000    -4.841000000
H     1.602000000    -2.591000000    -5.117000000
O    -3.869000000     2.059000000     2.772000000
H    -3.619000000     2.854000000     3.243000000
H    -3.559000000     1.344000000     3.328000000
O     4.355000000    -3.077000000    -3.099000000
H     4.323000000    -2.818000000    -2.178000000
H     3.438000000    -3.198000000    -3.346000000
O     0.000000000    -1.273000000     6.753000000
H     0.615000000    -1.626000000     6.110000000
H     0.368000000    -0.423000000     6.995000000
O    -1.954000000     3.867000000    -4.113000000
H    -1.187000000     3.412000000    -4.461000000
H    -2.041000000     4.645000000    -4.663000000
O    -2.687000000    -4.152000000     4.537000000
H    -2.242000000    -3.695000000     3.822000000
H    -2.877000000    -5.021000000     4.184000000
O    -2.994000000    -4.205000000     0.741000000
H    -3.016000000    -3.525000000     1.415000000
H    -2.877000000    -3.725000000    -0.079000000
O     3.653000000    -2.071000000     1.643000000
H     4.460000000    -2.552000000     1.828000000
H     3.458000000    -1.608000000     2.458000000
O    -2.798000000    -1.532000000     6.353000000
H    -2.748000000    -2.414000000     5.985000000
H    -1.886000000    -1.249000000     6.422000000
O     3.297000000    -0.548000000     3.965000000
H     2.579000000     0.082000000     3.908000000
H     3.902000000    -0.166000000     4.601000000
O    -4.902000000    -0.877000000    -0.633000000
H    -5.221000000    -1.514000000    -1.273000000
H    -4.345000000    -0.287000000    -1.140000000
O    -3.405000000    -0.586000000    -2.875000000
H    -3.973000000    -1.017000000    -3.514000000
H    -2.619000000    -1.132000000    -2.847000000
O    -2.500000000     6.122000000    -2.352000000
H    -2.122000000     5.876000000    -1.508000000
H    -3.165000000     5.454000000    -2.520000000
O    -5.348000000    -2.218000000     4.572000000
H    -4.706000000    -1.552000000     4.818000000
H    -5.387000000    -2.171000000     3.617000000
O     1.700000000    -6.195000000     3.622000000
H     2.131000000    -5.488000000     4.101000000
H     2.352000000    -6.895000000     3.591000000
O     5.060000000     2.232000000    -5.271000000
H     4.754000000     2.636000000    -4.459000000
H     4.437000000     1.523000000    -5.435000000
O    -6.282000000    -4.593000000     1.302000000
H    -6.983000000    -4.315000000     1.892000000
H    -5.954000000    -3.779000000     0.920000000
O    -0.168000000     4.453000000     2.497000000
H    -0.325000000     4.825000000     3.365000000
H    -0.549000000     3.576000000     2.540000000
O     4.515000000     3.546000000     0.023000000
H     4.941000000     4.215000000     0.558000000
H     3.604000000     3.549000000     0.317000000
O    -3.437000000     2.104000000    -1.893000000
H    -2.973000000     2.588000000    -2.577000000
H    -3.528000000     1.219000000    -2.245000000
O     1.207000000    -2.304000000     4.565000000
H     1.881000000    -1.774000000     4.139000000
H     0.689000000    -2.658000000     3.843000000
O    -4.986000000    -1.907000000     1.726000000
H    -4.119000000    -1.882000000     2.130000000
H    -4.877000000    -1.443000000     0.896000000
O     7.070000000     0.449000000    -2.291000000
H     6.629000000    -0.169000000    -1.707000000
H     7.962000000     0.110000000    -2.369000000
O     1.782000000     1.555000000     4.477000000
H     0.870000000     1.603000000     4.188000000
H     1.824000000     2.139000000     5.235000000
O     1.607000000     6.113000000     0.488000000
H     1.307000000     7.011000000     0.627000000
H     0.825000000     5.577000000     0.616000000
O     0.580000000     5.973000000    -5.222000000
H     0.140000000     6.465000000    -4.529000000
H     0.193000000     5.099000000    -5.178000000
O     0.495000000     3.241000000    -5.372000000
H     1.329000000     3.615000000    -5.088000000
H     0.638000000     2.295000000    -5.355000000
O    -6.266000000     0.727000000     2.919000000
H    -6.079000000     0.885000000     3.844000000
H    -5.488000000     1.043000000     2.460000000
O     3.030000000    -4.223000000     5.069000000
H     2.219000000    -3.737000000     5.218000000
H     3.711000000    -3.551000000     5.045000000
O    -5.241000000     2.050000000     0.312000000
H    -4.630000000     2.160000000    -0.417000000
H    -4.692000000     1.767000000     1.044000000
O    -0.368000000    -4.259000000    -1.729000000
H    -0.138000000    -4.539000000    -0.843000000
H     0.471000000    -4.200000000    -2.187000000
O     2.680000000     3.757000000    -3.810000000
H     3.245000000     3.199000000    -3.276000000
H     2.634000000     4.583000000    -3.329000000
O     3.270000000    -4.092000000    -0.175000000
H     2.452000000    -4.559000000    -0.003000000
H     3.155000000    -3.242000000     0.250000000
O    -1.716000000     5.314000000     0.043000000
H    -1.213000000     4.684000000     0.559000000
H    -2.371000000     5.654000000     0.653000000
O     2.080000000     3.184000000     1.655000000
H     1.728000000     2.363000000     1.998000000
H     1.432000000     3.844000000     1.902000000
O    -2.275000000    -6.402000000     2.254000000
H    -2.301000000    -5.579000000     1.765000000
H    -1.635000000    -6.938000000     1.787000000
O     4.810000000     2.353000000    -2.550000000
H     5.560000000     1.770000000    -2.664000000
H     4.902000000     2.692000000    -1.659000000
O    -0.556000000    -7.366000000     4.297000000
H    -1.170000000    -7.009000000     3.655000000
H     0.293000000    -7.001000000     4.045000000
