144
-2811.19029
O    -0.817000000    -2.547000000    -4.211000000
H    -1.195000000    -3.426000000    -4.182000000
H    -1.539000000    -1.967000000    -3.967000000
O    -4.765000000     0.422000000     6.598000000
H    -4.247000000     0.443000000     5.794000000
H    -4.412000000    -0.319000000     7.091000000
O     5.238000000     1.651000000    -0.814000000
H     5.222000000     2.380000000    -1.434000000
H     4.763000000     1.977000000    -0.049000000
O    -2.178000000    -3.540000000     4.809000000
H    -1.794000000    -2.840000000     4.281000000
H    -2.238000000    -4.285000000     4.211000000
O     4.951000000    -5.014000000    -1.277000000
H     5.687000000    -4.949000000    -0.668000000
H     4.205000000    -5.251000000    -0.726000000
O     4.725000000    -0.612000000    -2.492000000
H     4.928000000     0.194000000    -2.019000000
H     5.550000000    -1.096000000    -2.507000000
O     0.277000000     2.995000000     1.322000000
H     0.098000000     2.170000000     0.872000000
H     0.452000000     2.741000000     2.228000000
O     0.599000000    -5.591000000     2.500000000
H     1.009000000    -4.754000000     2.717000000
H    -0.240000000    -5.352000000     2.105000000
O    -2.394000000     0.565000000     4.477000000
H    -1.580000000     1.066000000     4.519000000
H    -2.167000000    -0.221000000     3.980000000
O    -2.769000000     4.973000000    -1.553000000
H    -1.828000000     4.955000000    -1.379000000
H    -2.911000000     5.796000000    -2.021000000
O    -1.944000000     4.561000000    -4.718000000
H    -1.077000000     4.946000000    -4.589000000
H    -1.921000000     3.746000000    -4.217000000
O     1.654000000    -1.563000000    -4.890000000
H     0.787000000    -1.672000000    -4.500000000
H     2.261000000    -1.859000000    -4.212000000
O    -4.194000000     2.600000000     2.984000000
H    -3.693000000     3.172000000     2.402000000
H    -3.538000000     2.025000000     3.378000000
O    -0.026000000     1.969000000     3.968000000
H     0.478000000     1.203000000     4.244000000
H     0.271000000     2.672000000     4.546000000
O     1.359000000    -0.213000000     7.162000000
H     1.376000000    -0.294000000     6.208000000
H     1.681000000    -1.056000000     7.480000000
O    -2.298000000     1.858000000    -3.537000000
H    -2.169000000     1.043000000    -3.052000000
H    -2.590000000     1.576000000    -4.404000000
O    -4.814000000    -5.418000000     4.802000000
H    -4.080000000    -5.438000000     4.188000000
H    -5.540000000    -5.051000000     4.297000000
O    -0.817000000    -4.782000000     6.824000000
H    -1.257000000    -4.126000000     6.283000000
H     0.055000000    -4.866000000     6.438000000
O    -3.795000000    -2.558000000     0.836000000
H    -3.217000000    -2.259000000     1.537000000
H    -3.220000000    -2.656000000     0.077000000
O     3.177000000    -2.632000000    -2.975000000
H     3.816000000    -3.248000000    -3.333000000
H     3.693000000    -1.860000000    -2.741000000
O     1.488000000    -5.727000000     5.937000000
H     2.166000000    -6.387000000     5.793000000
H     1.745000000    -4.995000000     5.376000000
O     1.559000000    -0.330000000     4.480000000
H     1.140000000    -1.041000000     3.996000000
H     2.319000000    -0.093000000     3.948000000
O    -6.326000000     2.049000000     0.626000000
H    -7.159000000     1.667000000     0.349000000
H    -6.515000000     2.444000000     1.477000000
O     3.487000000     0.111000000     2.422000000
H     3.331000000     0.852000000     1.836000000
H     3.842000000    -0.573000000     1.853000000
O    -2.423000000    -0.988000000    -2.406000000
H    -1.693000000    -1.300000000    -1.870000000
H    -3.202000000    -1.344000000    -1.979000000
O    -6.207000000    -3.611000000     2.540000000
H    -5.408000000    -3.383000000     2.064000000
H    -6.849000000    -3.797000000     1.856000000
O    -2.871000000    -2.068000000     6.874000000
H    -2.427000000    -2.329000000     6.066000000
H    -3.513000000    -2.760000000     7.028000000
O    -0.115000000     4.973000000    -0.804000000
H    -0.041000000     5.861000000    -0.455000000
H     0.382000000     4.432000000    -0.190000000
O     4.798000000     3.555000000    -2.731000000
H     4.462000000     3.605000000    -3.626000000
H     5.724000000     3.338000000    -2.835000000
O    -5.113000000     3.115000000    -3.114000000
H    -5.016000000     3.957000000    -3.558000000
H    -4.219000000     2.856000000    -2.892000000
O     1.527000000    -3.261000000     4.814000000
H     2.387000000    -3.112000000     4.422000000
H     0.906000000    -2.956000000     4.153000000
O    -4.655000000    -0.432000000    -0.679000000
H    -4.723000000    -1.139000000    -0.037000000
H    -4.823000000     0.365000000    -0.176000000
O     5.528000000    -0.093000000    -5.367000000
H     4.836000000     0.327000000    -4.856000000
H     6.120000000    -0.461000000    -4.710000000
O     3.132000000     2.563000000     0.965000000
H     2.242000000     2.744000000     1.266000000
H     3.527000000     3.428000000     0.851000000
O     3.376000000     5.265000000    -1.173000000
H     4.158000000     5.808000000    -1.274000000
H     3.616000000     4.423000000    -1.559000000
O     3.070000000    -6.078000000     0.671000000
H     2.461000000    -6.728000000     0.320000000
H     3.600000000    -6.563000000     1.304000000
O    -4.681000000    -0.547000000     3.376000000
H    -3.732000000    -0.482000000     3.486000000
H    -4.839000000    -1.474000000     3.200000000
O    -6.958000000     1.673000000     3.461000000
H    -7.081000000     1.031000000     4.160000000
H    -6.010000000     1.706000000     3.331000000
O     4.592000000    -1.648000000     1.088000000
H     4.663000000    -1.730000000     0.137000000
H     5.483000000    -1.453000000     1.379000000
O     4.048000000    -2.641000000     3.839000000
H     4.730000000    -3.260000000     3.579000000
H     4.118000000    -1.927000000     3.205000000
O    -1.394000000    -3.738000000    -1.279000000
H    -0.446000000    -3.605000000    -1.255000000
H    -1.543000000    -4.254000000    -2.072000000
O     1.296000000    -4.241000000    -1.242000000
H     1.798000000    -3.852000000    -1.959000000
H     1.956000000    -4.494000000    -0.597000000
O     0.760000000     4.672000000    -4.071000000
H     0.514000000     4.582000000    -3.151000000
H     1.345000000     3.932000000    -4.236000000
O     3.881000000     3.440000000    -5.384000000
H     3.380000000     3.199000000    -6.164000000
H     4.404000000     4.193000000    -5.659000000
O    -2.877000000     3.892000000     0.837000000
H    -3.040000000     4.386000000     0.033000000
H    -1.923000000     3.869000000     0.915000000
O    -1.551000000    -5.872000000     0.801000000
H    -1.464000000    -5.283000000     0.051000000
H    -1.579000000    -6.748000000     0.415000000
O     2.961000000     0.174000000    -6.700000000
H     2.498000000    -0.516000000    -6.223000000
H     3.863000000     0.118000000    -6.385000000
O    -2.985000000    -5.715000000     3.072000000
H    -3.175000000    -6.613000000     2.800000000
H    -2.795000000    -5.253000000     2.256000000
