144
-2820.71562
O     3.541000000    -3.326000000    -2.993000000
H     4.033000000    -4.147000000    -2.965000000
H     3.039000000    -3.321000000    -2.177000000
O     1.710000000     6.032000000     3.805000000
H     1.380000000     5.691000000     4.636000000
H     1.337000000     5.450000000     3.142000000
O    -6.390000000     4.237000000    -3.046000000
H    -5.795000000     4.983000000    -2.973000000
H    -5.950000000     3.532000000    -2.572000000
O    -2.212000000    -4.136000000     4.479000000
H    -2.088000000    -4.075000000     5.426000000
H    -1.369000000    -3.875000000     4.109000000
O    -0.819000000     0.392000000     4.841000000
H    -0.979000000     0.901000000     5.636000000
H    -0.480000000     1.030000000     4.213000000
O     3.203000000     1.837000000     4.194000000
H     2.675000000     2.411000000     4.749000000
H     2.709000000     1.773000000     3.377000000
O     4.367000000    -4.786000000     0.280000000
H     3.592000000    -4.262000000     0.081000000
H     4.798000000    -4.315000000     0.993000000
O    -0.036000000     0.813000000    -4.892000000
H     0.214000000    -0.107000000    -4.811000000
H     0.795000000     1.280000000    -4.982000000
O     3.943000000    -3.050000000     3.367000000
H     3.320000000    -2.330000000     3.464000000
H     3.686000000    -3.682000000     4.039000000
O     2.166000000     1.638000000     1.433000000
H     2.334000000     2.442000000     0.942000000
H     1.683000000     1.081000000     0.823000000
O    -3.637000000    -0.946000000     1.716000000
H    -4.387000000    -0.388000000     1.506000000
H    -2.971000000    -0.702000000     1.074000000
O     1.398000000    -5.863000000     0.253000000
H     2.263000000    -6.220000000     0.455000000
H     1.464000000    -4.935000000     0.476000000
O    -3.599000000    -0.121000000     5.247000000
H    -4.039000000    -0.086000000     4.398000000
H    -2.674000000     0.018000000     5.043000000
O    -1.524000000    -1.668000000    -1.759000000
H    -0.664000000    -1.308000000    -1.540000000
H    -1.953000000    -0.975000000    -2.260000000
O     4.353000000    -0.008000000    -2.475000000
H     4.413000000    -0.887000000    -2.849000000
H     4.566000000    -0.126000000    -1.549000000
O     4.061000000    -2.833000000    -5.762000000
H     4.031000000    -2.988000000    -4.818000000
H     4.288000000    -3.683000000    -6.137000000
O     2.826000000     3.924000000    -0.483000000
H     2.873000000     4.726000000    -1.004000000
H     3.740000000     3.692000000    -0.318000000
O     1.807000000    -1.520000000    -4.626000000
H     1.400000000    -1.961000000    -5.371000000
H     2.167000000    -2.229000000    -4.094000000
O     6.453000000     1.852000000    -3.148000000
H     7.223000000     1.540000000    -2.673000000
H     5.776000000     1.202000000    -2.960000000
O    -5.150000000     2.186000000    -5.426000000
H    -5.535000000     3.046000000    -5.256000000
H    -5.039000000     1.797000000    -4.559000000
O     3.107000000    -6.818000000     3.637000000
H     2.164000000    -6.917000000     3.505000000
H     3.204000000    -5.951000000     4.031000000
O     4.924000000    -7.544000000    -0.572000000
H     4.264000000    -7.785000000     0.078000000
H     5.016000000    -6.596000000    -0.480000000
O    -2.726000000     4.200000000    -2.907000000
H    -2.265000000     3.791000000    -3.639000000
H    -3.305000000     3.514000000    -2.575000000
O    -4.092000000    -5.291000000     1.181000000
H    -3.372000000    -4.735000000     0.883000000
H    -4.012000000    -5.295000000     2.135000000
O    -2.559000000     5.999000000    -0.199000000
H    -1.949000000     6.483000000     0.358000000
H    -2.091000000     5.888000000    -1.027000000
O     0.302000000    -3.697000000     3.483000000
H     0.743000000    -2.915000000     3.815000000
H     0.610000000    -3.780000000     2.580000000
O    -3.403000000    -3.582000000    -2.192000000
H    -3.089000000    -4.427000000    -2.513000000
H    -2.608000000    -3.063000000    -2.066000000
O     2.814000000     2.115000000    -4.004000000
H     2.692000000     1.882000000    -3.083000000
H     3.196000000     1.332000000    -4.400000000
O     4.296000000    -0.893000000     0.082000000
H     3.770000000    -1.642000000    -0.197000000
H     3.913000000    -0.631000000     0.919000000
O    -0.410000000     2.481000000     3.107000000
H    -0.015000000     2.907000000     2.347000000
H    -1.319000000     2.781000000     3.103000000
O    -1.051000000    -6.508000000    -0.088000000
H    -0.114000000    -6.320000000    -0.129000000
H    -1.462000000    -5.654000000     0.045000000
O     0.480000000     4.259000000     1.271000000
H     0.734000000     3.967000000     0.395000000
H     0.277000000     5.188000000     1.164000000
O     0.098000000     7.089000000     0.765000000
H     0.896000000     7.068000000     0.238000000
H    -0.334000000     7.905000000     0.513000000
O    -4.429000000     1.989000000    -2.414000000
H    -4.883000000     1.989000000    -1.571000000
H    -4.042000000     1.116000000    -2.477000000
O    -4.561000000     6.291000000    -2.600000000
H    -4.333000000     6.679000000    -1.755000000
H    -3.921000000     5.589000000    -2.721000000
O    -4.313000000     4.033000000     0.399000000
H    -3.828000000     4.814000000     0.133000000
H    -5.214000000     4.337000000     0.513000000
O    -1.573000000     3.218000000    -5.363000000
H    -1.086000000     2.517000000    -4.928000000
H    -0.899000000     3.770000000    -5.758000000
O     2.556000000    -4.726000000     5.209000000
H     2.663000000    -4.827000000     6.155000000
H     1.612000000    -4.795000000     5.066000000
O    -4.584000000    -2.495000000     3.631000000
H    -4.436000000    -2.046000000     2.799000000
H    -3.787000000    -3.004000000     3.775000000
O     6.595000000    -2.396000000    -2.940000000
H     6.118000000    -3.133000000    -2.557000000
H     7.518000000    -2.616000000    -2.814000000
O     0.528000000    -7.113000000     2.793000000
H     0.658000000    -6.641000000     1.971000000
H    -0.344000000    -6.847000000     3.087000000
O    -2.604000000    -0.006000000    -3.563000000
H    -3.113000000    -0.359000000    -4.292000000
H    -1.786000000     0.290000000    -3.964000000
O     5.726000000    -4.715000000    -1.900000000
H     6.607000000    -4.939000000    -1.600000000
H     5.223000000    -4.594000000    -1.095000000
O    -3.054000000     3.260000000     3.041000000
H    -3.225000000     3.625000000     2.173000000
H    -3.788000000     3.561000000     3.576000000
O    -5.505000000     1.494000000     1.084000000
H    -6.025000000     1.776000000     0.332000000
H    -4.847000000     2.180000000     1.192000000
O     2.867000000     5.408000000    -2.810000000
H     2.537000000     4.700000000    -3.363000000
H     3.791000000     5.488000000    -3.049000000
O     1.487000000    -1.166000000     4.018000000
H     0.619000000    -0.985000000     4.378000000
H     1.835000000    -0.305000000     3.786000000
O    -1.902000000    -3.777000000     0.689000000
H    -0.967000000    -3.589000000     0.771000000
H    -2.192000000    -3.233000000    -0.043000000
