144
-2834.49758
O    -1.906000000     1.616000000     6.799000000
H    -1.464000000     1.378000000     5.984000000
H    -2.261000000     0.790000000     7.129000000
O    -2.521000000    -5.007000000    -0.222000000
H    -2.356000000    -4.860000000    -1.153000000
H    -1.745000000    -4.659000000     0.217000000
O    -4.332000000     1.958000000    -2.327000000
H    -4.921000000     2.466000000    -1.769000000
H    -3.528000000     2.476000000    -2.361000000
O    -5.387000000    -0.042000000     1.395000000
H    -6.330000000     0.098000000     1.474000000
H    -5.306000000    -0.867000000     0.917000000
O     1.279000000     0.792000000     7.458000000
H     1.163000000     1.486000000     8.107000000
H     0.483000000     0.264000000     7.528000000
O     3.204000000     2.591000000     3.782000000
H     3.486000000     2.826000000     4.666000000
H     2.876000000     1.696000000     3.865000000
O     1.730000000    -4.288000000    -0.131000000
H     1.648000000    -4.754000000    -0.963000000
H     0.894000000    -4.439000000     0.311000000
O    -4.135000000    -5.054000000     2.042000000
H    -3.807000000    -4.286000000     2.511000000
H    -3.768000000    -4.971000000     1.162000000
O    -3.567000000    -1.729000000    -5.980000000
H    -3.993000000    -0.890000000    -5.805000000
H    -3.046000000    -1.901000000    -5.195000000
O     4.592000000     0.906000000     1.867000000
H     4.610000000     0.247000000     2.561000000
H     4.086000000     1.630000000     2.238000000
O     0.833000000    -2.276000000     7.880000000
H     0.522000000    -3.176000000     7.782000000
H     1.788000000    -2.349000000     7.859000000
O     1.075000000    -3.366000000     4.590000000
H     0.716000000    -2.632000000     4.090000000
H     0.324000000    -3.939000000     4.746000000
O     0.021000000     5.187000000    -3.948000000
H     0.713000000     5.722000000    -4.336000000
H    -0.658000000     5.814000000    -3.702000000
O     2.922000000     2.381000000    -4.736000000
H     2.603000000     2.972000000    -4.053000000
H     3.660000000     1.925000000    -4.333000000
O     4.684000000    -0.027000000    -0.955000000
H     3.955000000    -0.647000000    -0.953000000
H     4.662000000     0.372000000    -0.085000000
O    -4.603000000     0.649000000    -4.878000000
H    -4.318000000     1.188000000    -4.140000000
H    -4.478000000     1.207000000    -5.645000000
O     2.530000000     3.116000000    -7.448000000
H     2.610000000     2.740000000    -6.571000000
H     3.424000000     3.360000000    -7.686000000
O    -3.358000000     2.045000000     1.220000000
H    -3.382000000     2.455000000     0.355000000
H    -3.987000000     1.326000000     1.162000000
O    -2.393000000    -2.200000000    -3.599000000
H    -2.905000000    -1.568000000    -3.094000000
H    -1.555000000    -2.251000000    -3.139000000
O    -0.862000000    -0.878000000     6.275000000
H    -0.225000000    -1.457000000     6.693000000
H    -0.699000000    -0.979000000     5.337000000
O    -3.501000000    -2.998000000     4.535000000
H    -2.700000000    -2.944000000     4.014000000
H    -3.222000000    -2.787000000     5.426000000
O    -2.998000000    -6.824000000     4.021000000
H    -3.247000000    -6.145000000     3.394000000
H    -3.323000000    -7.637000000     3.634000000
O     2.624000000    -1.683000000    -0.468000000
H     1.994000000    -1.405000000     0.197000000
H     2.580000000    -2.639000000    -0.455000000
O     0.539000000    -0.105000000    -7.610000000
H     1.089000000     0.202000000    -6.889000000
H     1.120000000    -0.105000000    -8.371000000
O    -2.717000000     5.175000000    -0.083000000
H    -2.914000000     5.900000000     0.510000000
H    -1.920000000     4.783000000     0.274000000
O    -3.717000000    -0.512000000     3.599000000
H    -4.252000000    -0.341000000     2.824000000
H    -3.627000000    -1.465000000     3.622000000
O    -0.215000000    -3.617000000    -5.790000000
H    -0.510000000    -3.495000000    -6.692000000
H    -0.271000000    -2.745000000    -5.400000000
O     3.659000000     5.378000000     1.246000000
H     3.087000000     5.039000000     1.934000000
H     3.369000000     4.931000000     0.451000000
O    -2.260000000     3.372000000    -3.801000000
H    -1.390000000     3.638000000    -3.503000000
H    -2.321000000     3.712000000    -4.694000000
O    -0.971000000     3.225000000     1.036000000
H    -0.250000000     2.726000000     1.419000000
H    -1.748000000     2.692000000     1.204000000
O     0.223000000     6.264000000     0.168000000
H     0.280000000     5.380000000     0.529000000
H     1.049000000     6.679000000     0.417000000
O     1.899000000     0.101000000     4.772000000
H     1.606000000     0.071000000     5.683000000
H     1.167000000    -0.259000000     4.272000000
O     0.286000000     2.983000000     4.954000000
H    -0.454000000     2.593000000     4.490000000
H     1.007000000     2.369000000     4.815000000
O     4.952000000     1.542000000    -3.206000000
H     4.761000000     1.021000000    -2.426000000
H     5.702000000     2.081000000    -2.956000000
O    -0.787000000    -4.898000000    -2.600000000
H    -0.588000000    -3.966000000    -2.679000000
H    -0.220000000    -5.320000000    -3.245000000
O    -5.208000000    -2.347000000    -0.172000000
H    -4.784000000    -3.117000000    -0.550000000
H    -5.017000000    -1.641000000    -0.789000000
O     2.301000000     4.356000000    -1.577000000
H     2.919000000     4.183000000    -2.287000000
H     1.541000000     4.745000000    -2.010000000
O     4.821000000    -2.637000000     2.667000000
H     5.429000000    -2.507000000     1.939000000
H     4.949000000    -1.870000000     3.225000000
O     1.321000000     4.808000000     2.859000000
H     1.780000000     4.137000000     3.363000000
H     0.491000000     4.929000000     3.320000000
O     6.077000000    -0.462000000    -5.106000000
H     5.475000000    -0.684000000    -5.816000000
H     5.587000000     0.151000000    -4.558000000
O     0.490000000    -2.480000000    -2.837000000
H     1.070000000    -3.006000000    -3.387000000
H     1.058000000    -2.143000000    -2.144000000
O    -1.406000000     1.188000000     3.866000000
H    -1.089000000     0.292000000     3.748000000
H    -2.258000000     1.199000000     3.429000000
O    -4.589000000    -0.846000000    -2.165000000
H    -4.549000000     0.109000000    -2.229000000
H    -5.237000000    -1.103000000    -2.821000000
O     4.464000000    -0.609000000     4.444000000
H     4.579000000    -1.121000000     5.245000000
H     3.528000000    -0.408000000     4.421000000
O     2.958000000    -4.654000000     6.201000000
H     2.312000000    -4.254000000     5.619000000
H     2.456000000    -5.280000000     6.722000000
O    -0.628000000    -5.913000000     5.225000000
H    -0.194000000    -6.196000000     4.420000000
H    -1.549000000    -6.139000000     5.093000000
O     2.490000000    -2.751000000    -4.484000000
H     2.359000000    -1.802000000    -4.485000000
H     3.253000000    -2.888000000    -5.044000000
O    -0.364000000    -4.518000000     1.493000000
H    -0.089000000    -5.094000000     2.206000000
H    -0.790000000    -3.781000000     1.931000000
