144
-2818.34006
O    -0.513000000     2.014000000     7.553000000
H     0.195000000     2.413000000     7.047000000
H    -0.810000000     2.711000000     8.138000000
O    -0.188000000    -6.312000000    -1.980000000
H    -0.069000000    -5.647000000    -1.302000000
H     0.508000000    -6.134000000    -2.613000000
O     3.541000000     4.322000000    -4.385000000
H     2.748000000     4.479000000    -4.897000000
H     4.014000000     5.154000000    -4.415000000
O    -3.600000000    -3.282000000    -1.575000000
H    -3.167000000    -4.134000000    -1.618000000
H    -2.903000000    -2.650000000    -1.751000000
O    -2.090000000     1.993000000    -5.185000000
H    -1.347000000     1.410000000    -5.337000000
H    -2.036000000     2.639000000    -5.889000000
O     3.176000000     3.715000000    -0.004000000
H     2.912000000     4.577000000     0.316000000
H     3.400000000     3.224000000     0.787000000
O     0.218000000    -4.236000000    -0.239000000
H     1.056000000    -4.371000000     0.204000000
H    -0.437000000    -4.359000000     0.448000000
O     4.223000000     2.757000000    -2.373000000
H     3.964000000     3.323000000    -3.101000000
H     3.829000000     3.164000000    -1.602000000
O    -1.122000000    -3.185000000    -3.319000000
H    -1.396000000    -2.815000000    -4.158000000
H    -0.179000000    -3.030000000    -3.285000000
O    -0.409000000    -3.249000000     5.377000000
H    -0.755000000    -2.840000000     4.584000000
H     0.230000000    -3.886000000     5.058000000
O     1.566000000    -2.299000000    -3.916000000
H     2.078000000    -1.632000000    -4.374000000
H     1.885000000    -3.130000000    -4.269000000
O    -0.182000000     0.022000000    -6.121000000
H     0.002000000     0.665000000    -6.806000000
H     0.662000000    -0.117000000    -5.691000000
O     4.809000000     0.075000000    -3.194000000
H     5.738000000     0.058000000    -2.961000000
H     4.519000000     0.955000000    -2.957000000
O    -2.582000000     0.925000000     6.591000000
H    -2.406000000     0.380000000     5.824000000
H    -1.746000000     1.352000000     6.777000000
O    -4.953000000    -1.967000000    -3.892000000
H    -5.884000000    -1.761000000    -3.974000000
H    -4.883000000    -2.430000000    -3.057000000
O    -2.881000000    -4.727000000     4.581000000
H    -2.298000000    -5.485000000     4.551000000
H    -2.537000000    -4.188000000     5.294000000
O    -1.237000000     5.711000000    -5.645000000
H    -1.846000000     6.382000000    -5.952000000
H    -1.354000000     5.698000000    -4.695000000
O     0.849000000    -0.794000000     6.363000000
H     0.289000000    -1.270000000     6.977000000
H     0.401000000    -0.871000000     5.521000000
O    -3.321000000    -0.771000000     4.686000000
H    -4.154000000    -1.240000000     4.706000000
H    -2.747000000    -1.323000000     4.154000000
O     2.323000000    -2.260000000    -1.050000000
H     2.172000000    -1.926000000    -1.934000000
H     1.448000000    -2.449000000    -0.712000000
O    -2.462000000    -0.657000000    -7.963000000
H    -1.754000000    -0.397000000    -7.373000000
H    -2.587000000     0.100000000    -8.535000000
O    -2.962000000     4.742000000    -0.733000000
H    -2.837000000     4.978000000     0.186000000
H    -2.945000000     3.785000000    -0.738000000
O     3.500000000    -3.476000000     1.429000000
H     3.269000000    -2.697000000     1.934000000
H     3.701000000    -3.144000000     0.554000000
O    -2.771000000     1.958000000     0.077000000
H    -2.298000000     1.425000000    -0.562000000
H    -2.412000000     1.691000000     0.924000000
O    -1.181000000     3.384000000     4.433000000
H    -1.957000000     2.908000000     4.136000000
H    -0.677000000     2.736000000     4.925000000
O     0.050000000     5.083000000     2.471000000
H     0.851000000     4.622000000     2.221000000
H    -0.278000000     4.598000000     3.228000000
O     2.538000000    -1.707000000     3.547000000
H     2.858000000    -2.114000000     4.352000000
H     1.703000000    -1.309000000     3.796000000
O    -5.406000000    -3.239000000     4.954000000
H    -5.087000000    -3.373000000     5.847000000
H    -5.019000000    -3.956000000     4.452000000
O     0.765000000     1.875000000     5.152000000
H     1.467000000     1.525000000     5.701000000
H     0.439000000     1.117000000     4.667000000
O    -0.358000000    -0.331000000     9.161000000
H    -0.191000000     0.326000000     8.486000000
H    -1.312000000    -0.413000000     9.185000000
O     2.227000000     2.405000000    -6.292000000
H     1.378000000     2.229000000    -6.697000000
H     2.361000000     3.345000000    -6.414000000
O     2.543000000     3.611000000     2.797000000
H     2.726000000     4.042000000     3.632000000
H     2.980000000     2.762000000     2.865000000
O    -2.806000000    -5.652000000    -2.842000000
H    -1.917000000    -5.701000000    -2.493000000
H    -2.724000000    -5.122000000    -3.635000000
O    -6.217000000    -3.657000000    -1.047000000
H    -6.364000000    -3.554000000    -0.106000000
H    -5.280000000    -3.838000000    -1.125000000
O     4.415000000     0.382000000     0.008000000
H     4.346000000     1.213000000    -0.462000000
H     3.706000000    -0.154000000    -0.349000000
O     2.568000000     6.150000000     1.074000000
H     1.760000000     6.621000000     0.872000000
H     2.695000000     6.283000000     2.014000000
O     0.389000000     5.532000000    -1.227000000
H    -0.318000000     4.985000000    -0.885000000
H     1.142000000     4.944000000    -1.281000000
O    -1.195000000    -3.118000000    -6.117000000
H    -0.349000000    -3.564000000    -6.158000000
H    -1.010000000    -2.227000000    -6.416000000
O    -3.171000000     1.812000000     3.695000000
H    -3.238000000     0.870000000     3.849000000
H    -4.064000000     2.086000000     3.490000000
O    -4.088000000     1.404000000    -3.289000000
H    -3.356000000     1.677000000    -3.842000000
H    -4.453000000     0.640000000    -3.736000000
O     4.385000000     0.800000000     2.621000000
H     4.476000000     0.615000000     1.686000000
H     4.032000000    -0.009000000     2.992000000
O     2.751000000     0.945000000     7.599000000
H     2.116000000     0.259000000     7.392000000
H     3.368000000     0.528000000     8.199000000
O     2.271000000    -4.635000000     4.263000000
H     2.579000000    -3.792000000     3.930000000
H     1.925000000    -5.084000000     3.492000000
O    -4.364000000    -5.300000000     2.388000000
H    -3.923000000    -5.307000000     3.237000000
H    -4.393000000    -6.220000000     2.125000000
O     2.698000000    -0.229000000    -5.261000000
H     3.388000000    -0.363000000    -4.611000000
H     2.692000000     0.716000000    -5.412000000
O     0.226000000    -3.227000000     8.284000000
H    -0.210000000    -2.840000000     7.525000000
H    -0.190000000    -2.810000000     9.038000000
O    -1.585000000    -4.099000000     1.815000000
H    -2.429000000    -4.416000000     2.139000000
H    -1.494000000    -3.227000000     2.198000000
O     4.111000000    -3.931000000    -1.772000000
H     3.478000000    -3.249000000    -1.548000000
H     4.315000000    -3.774000000    -2.694000000
