144
-2799.49578
O    -1.399000000    -5.040000000     5.511000000
H    -1.658000000    -4.188000000     5.862000000
H    -0.732000000    -4.836000000     4.855000000
O     5.653000000     0.253000000    -5.579000000
H     6.331000000    -0.225000000    -5.103000000
H     4.882000000     0.201000000    -5.014000000
O    -3.160000000    -4.426000000     2.511000000
H    -3.977000000    -4.239000000     2.974000000
H    -2.575000000    -3.711000000     2.761000000
O    -1.035000000     2.143000000     5.870000000
H    -1.832000000     1.903000000     5.397000000
H    -0.367000000     1.546000000     5.533000000
O    -4.070000000    -1.007000000    -1.639000000
H    -4.549000000    -1.401000000    -0.909000000
H    -3.534000000    -1.720000000    -1.985000000
O     0.986000000    -1.011000000     5.908000000
H     0.338000000    -0.947000000     5.207000000
H     1.662000000    -0.377000000     5.668000000
O     3.878000000     2.701000000    -1.166000000
H     3.551000000     2.676000000    -2.065000000
H     4.828000000     2.770000000    -1.258000000
O     2.657000000     2.921000000     4.350000000
H     2.650000000     3.791000000     3.950000000
H     1.832000000     2.523000000     4.071000000
O    -3.120000000    -0.750000000     4.546000000
H    -2.957000000    -1.400000000     5.229000000
H    -2.254000000    -0.554000000     4.190000000
O     2.748000000    -0.675000000    -5.383000000
H     2.769000000     0.185000000    -5.803000000
H     1.872000000    -1.012000000    -5.572000000
O     4.434000000    -3.034000000    -5.417000000
H     3.890000000    -3.821000000    -5.441000000
H     3.809000000    -2.309000000    -5.426000000
O    -2.940000000    -3.317000000    -2.100000000
H    -2.115000000    -3.693000000    -2.408000000
H    -3.168000000    -3.838000000    -1.330000000
O    -4.754000000     0.488000000     2.359000000
H    -4.261000000     0.097000000     3.080000000
H    -4.191000000     1.192000000     2.038000000
O    -2.838000000    -2.673000000     6.438000000
H    -2.594000000    -2.298000000     7.284000000
H    -3.751000000    -2.940000000     6.548000000
O     0.045000000    -3.181000000     3.465000000
H     0.799000000    -3.281000000     2.884000000
H    -0.243000000    -2.278000000     3.331000000
O     1.403000000    -5.577000000    -0.277000000
H     1.406000000    -6.502000000    -0.028000000
H     1.277000000    -5.108000000     0.548000000
O     2.048000000     5.730000000    -3.288000000
H     1.185000000     6.105000000    -3.463000000
H     1.994000000     4.836000000    -3.624000000
O    -4.533000000     2.674000000     4.295000000
H    -4.496000000     3.561000000     4.654000000
H    -3.965000000     2.704000000     3.525000000
O     1.296000000     2.990000000    -3.603000000
H     0.513000000     3.152000000    -3.077000000
H     1.070000000     2.234000000    -4.144000000
O     1.912000000    -3.871000000    -2.582000000
H     1.791000000    -4.041000000    -3.516000000
H     1.488000000    -4.611000000    -2.147000000
O     4.585000000     3.744000000     1.787000000
H     3.785000000     4.204000000     2.041000000
H     5.292000000     4.351000000     2.008000000
O     3.988000000    -1.471000000     2.500000000
H     4.857000000    -1.786000000     2.250000000
H     3.872000000    -0.664000000     1.999000000
O     4.109000000     0.201000000    -3.139000000
H     3.565000000    -0.223000000    -3.802000000
H     4.258000000    -0.477000000    -2.481000000
O    -2.243000000    -0.718000000    -5.539000000
H    -2.370000000    -0.374000000    -6.423000000
H    -2.687000000    -0.088000000    -4.971000000
O    -2.852000000     2.971000000    -5.064000000
H    -3.389000000     2.272000000    -4.690000000
H    -2.636000000     2.662000000    -5.944000000
O    -1.214000000     4.045000000    -2.990000000
H    -1.544000000     3.567000000    -3.751000000
H    -1.656000000     4.893000000    -3.028000000
O    -0.297000000     3.748000000     3.245000000
H     0.196000000     2.936000000     3.126000000
H    -0.113000000     4.010000000     4.147000000
O     1.988000000     7.085000000     1.177000000
H     2.170000000     6.301000000     0.660000000
H     1.037000000     7.085000000     1.287000000
O    -0.083000000     5.140000000     0.706000000
H     0.809000000     5.100000000     0.362000000
H    -0.053000000     4.622000000     1.510000000
O    -3.030000000     3.690000000     2.001000000
H    -2.775000000     3.484000000     1.102000000
H    -2.203000000     3.856000000     2.453000000
O    -4.644000000     1.588000000    -1.514000000
H    -4.440000000     0.654000000    -1.563000000
H    -3.792000000     2.022000000    -1.568000000
O     3.225000000    -1.925000000    -1.364000000
H     2.529000000    -1.439000000    -0.922000000
H     2.772000000    -2.640000000    -1.810000000
O     0.311000000     1.440000000    -5.734000000
H     1.170000000     1.288000000    -6.127000000
H    -0.273000000     1.573000000    -6.481000000
O     0.169000000    -1.827000000    -6.127000000
H     0.260000000    -2.756000000    -5.917000000
H    -0.684000000    -1.582000000    -5.768000000
O     3.776000000     1.134000000     1.292000000
H     3.825000000     1.341000000     0.359000000
H     4.125000000     1.911000000     1.729000000
O     1.293000000     5.105000000     6.758000000
H     1.887000000     4.419000000     6.452000000
H     1.818000000     5.621000000     7.370000000
O     2.680000000    -1.502000000    -8.022000000
H     2.255000000    -0.651000000    -8.132000000
H     2.856000000    -1.561000000    -7.083000000
O     2.138000000     4.984000000    -0.645000000
H     2.087000000     5.365000000    -1.521000000
H     2.753000000     4.255000000    -0.736000000
O     4.334000000    -0.441000000     5.105000000
H     3.918000000    -0.691000000     4.280000000
H     5.247000000    -0.274000000     4.872000000
O    -6.024000000    -0.556000000     5.090000000
H    -6.319000000     0.351000000     5.002000000
H    -5.125000000    -0.548000000     4.761000000
O    -0.798000000     0.850000000     8.636000000
H    -0.851000000     1.394000000     7.850000000
H    -0.766000000     1.476000000     9.359000000
O    -2.297000000     2.951000000    -0.800000000
H    -1.961000000     3.527000000    -1.486000000
H    -1.653000000     2.245000000    -0.745000000
O    -0.872000000    -6.094000000    -1.448000000
H     0.000000000    -5.721000000    -1.319000000
H    -1.206000000    -5.657000000    -2.231000000
O    -0.946000000    -4.688000000    -3.802000000
H    -1.701000000    -5.070000000    -4.250000000
H    -0.369000000    -4.401000000    -4.510000000
O     2.972000000     1.894000000     7.349000000
H     3.368000000     1.064000000     7.617000000
H     3.162000000     1.959000000     6.413000000
O     1.110000000    -3.739000000     6.547000000
H     0.947000000    -2.806000000     6.405000000
H     0.471000000    -3.995000000     7.212000000
O    -3.288000000    -5.562000000    -0.105000000
H    -3.192000000    -5.234000000     0.789000000
H    -2.396000000    -5.773000000    -0.380000000
O    -3.814000000    -3.692000000    -5.693000000
H    -3.199000000    -3.963000000    -6.376000000
H    -3.541000000    -2.803000000    -5.465000000
