144
-2802.19476
O    -5.522000000    -0.517000000    -1.774000000
H    -4.579000000    -0.355000000    -1.770000000
H    -5.892000000     0.205000000    -1.266000000
O    -4.666000000    -0.005000000     1.139000000
H    -3.929000000     0.250000000     0.584000000
H    -4.298000000    -0.045000000     2.022000000
O     0.383000000     3.847000000     5.295000000
H    -0.262000000     3.365000000     4.777000000
H     0.940000000     4.276000000     4.646000000
O    -1.079000000     1.908000000    -2.842000000
H    -1.353000000     1.108000000    -3.290000000
H    -0.123000000     1.857000000    -2.822000000
O    -0.249000000     0.025000000     6.035000000
H     0.336000000     0.528000000     6.602000000
H    -0.615000000     0.674000000     5.434000000
O    -3.415000000     1.723000000    -1.135000000
H    -2.619000000     1.782000000    -1.663000000
H    -3.470000000     2.569000000    -0.690000000
O     2.286000000     2.165000000     3.752000000
H     2.776000000     2.076000000     2.935000000
H     1.372000000     2.241000000     3.477000000
O    -2.284000000     2.315000000     5.795000000
H    -3.025000000     1.849000000     6.183000000
H    -2.154000000     1.892000000     4.946000000
O     3.576000000    -3.841000000    -1.873000000
H     3.389000000    -3.636000000    -2.789000000
H     4.520000000    -3.998000000    -1.850000000
O    -2.148000000     2.963000000    -6.071000000
H    -1.335000000     2.458000000    -6.108000000
H    -2.523000000     2.878000000    -6.947000000
O     1.917000000     2.808000000    -4.519000000
H     2.651000000     3.254000000    -4.941000000
H     1.495000000     2.319000000    -5.227000000
O    -3.848000000    -4.119000000    -0.735000000
H    -4.174000000    -4.125000000     0.165000000
H    -2.898000000    -4.044000000    -0.645000000
O     5.738000000     2.318000000     0.065000000
H     6.623000000     2.457000000    -0.273000000
H     5.286000000     1.844000000    -0.633000000
O    -6.447000000    -0.907000000     4.052000000
H    -5.548000000    -0.908000000     3.724000000
H    -6.525000000    -0.086000000     4.537000000
O    -2.301000000    -0.229000000    -4.038000000
H    -3.196000000    -0.194000000    -4.377000000
H    -2.278000000    -1.024000000    -3.507000000
O     5.290000000    -1.232000000    -3.429000000
H     6.117000000    -0.948000000    -3.818000000
H     5.518000000    -2.014000000    -2.925000000
O    -4.281000000     0.945000000     3.600000000
H    -4.540000000     1.722000000     4.097000000
H    -3.333000000     0.891000000     3.718000000
O    -2.166000000    -5.269000000    -4.712000000
H    -1.534000000    -5.766000000    -4.193000000
H    -1.653000000    -4.912000000    -5.437000000
O     2.163000000    -1.656000000     2.764000000
H     1.952000000    -0.746000000     2.554000000
H     1.496000000    -2.168000000     2.306000000
O    -2.206000000     0.674000000     8.420000000
H    -1.982000000     0.660000000     7.490000000
H    -3.162000000     0.617000000     8.437000000
O    -2.895000000    -1.836000000     4.287000000
H    -3.056000000    -1.776000000     5.229000000
H    -2.363000000    -1.066000000     4.086000000
O     4.080000000    -0.160000000    -5.662000000
H     4.485000000    -0.520000000    -4.873000000
H     3.266000000    -0.653000000    -5.759000000
O     4.000000000    -2.638000000     0.723000000
H     3.789000000    -2.714000000    -0.207000000
H     3.251000000    -3.030000000     1.171000000
O    -3.790000000     4.534000000     1.852000000
H    -2.856000000     4.617000000     2.043000000
H    -3.849000000     4.625000000     0.900000000
O     4.127000000     0.003000000     1.592000000
H     4.004000000    -0.943000000     1.514000000
H     3.761000000     0.359000000     0.782000000
O    -2.558000000    -2.731000000    -3.046000000
H    -3.243000000    -2.926000000    -2.406000000
H    -2.477000000    -3.534000000    -3.561000000
O     3.564000000     3.220000000     1.192000000
H     4.100000000     3.879000000     1.632000000
H     4.168000000     2.782000000     0.592000000
O     2.080000000    -1.730000000    -6.296000000
H     2.277000000    -1.711000000    -7.233000000
H     1.190000000    -1.382000000    -6.232000000
O     3.342000000     3.067000000    -2.135000000
H     3.427000000     4.020000000    -2.145000000
H     3.024000000     2.845000000    -3.010000000
O    -0.826000000    -1.311000000    -6.444000000
H    -1.142000000    -2.184000000    -6.677000000
H    -1.093000000    -1.195000000    -5.532000000
O     4.432000000     0.586000000    -1.489000000
H     3.817000000     1.258000000    -1.783000000
H     4.723000000     0.159000000    -2.294000000
O    -0.773000000     4.748000000     2.055000000
H    -0.593000000     3.888000000     2.433000000
H     0.002000000     4.945000000     1.528000000
O    -2.856000000     4.635000000     7.154000000
H    -2.721000000     3.773000000     6.759000000
H    -1.988000000     5.038000000     7.151000000
O    -2.266000000     5.696000000     4.079000000
H    -1.831000000     5.711000000     3.227000000
H    -1.941000000     4.901000000     4.501000000
O     1.221000000     2.491000000     7.552000000
H     2.046000000     2.163000000     7.193000000
H     0.788000000     2.912000000     6.810000000
O     1.284000000     5.306000000     0.320000000
H     1.212000000     5.774000000    -0.512000000
H     1.856000000     4.563000000     0.128000000
O     0.432000000     1.282000000    -6.339000000
H     0.769000000     1.416000000    -7.225000000
H     0.098000000     0.385000000    -6.343000000
O     1.905000000     5.910000000     3.587000000
H     1.440000000     6.446000000     2.944000000
H     2.565000000     5.442000000     3.076000000
O     3.093000000     0.680000000     6.134000000
H     3.005000000    -0.231000000     5.855000000
H     2.765000000     1.190000000     5.394000000
O    -0.519000000    -3.318000000     3.012000000
H    -0.232000000    -4.082000000     3.513000000
H    -0.896000000    -2.730000000     3.667000000
O     0.037000000     5.700000000     7.227000000
H     0.431000000     6.416000000     6.729000000
H    -0.016000000     4.975000000     6.604000000
O     3.424000000    -3.391000000    -4.509000000
H     3.989000000    -3.713000000    -5.211000000
H     2.871000000    -2.733000000    -4.930000000
O    -1.310000000    -4.517000000     0.658000000
H    -0.977000000    -4.041000000     1.418000000
H    -0.571000000    -4.545000000     0.051000000
O     1.668000000    -4.212000000     0.974000000
H     1.640000000    -4.392000000     0.034000000
H     1.659000000    -5.078000000     1.383000000
O     3.940000000     3.671000000     6.154000000
H     3.317000000     3.482000000     5.452000000
H     4.757000000     3.264000000     5.865000000
O    -4.892000000     1.521000000     6.666000000
H    -5.457000000     2.146000000     7.121000000
H    -5.430000000     1.194000000     5.945000000
O    -6.502000000    -2.160000000     0.718000000
H    -6.467000000    -1.786000000    -0.162000000
H    -5.700000000    -1.853000000     1.141000000
O    -3.757000000    -3.031000000     2.039000000
H    -3.558000000    -2.834000000     2.954000000
H    -2.914000000    -3.276000000     1.658000000
