144
-2808.37467
O    -4.555000000    -2.400000000     4.156000000
H    -3.614000000    -2.239000000     4.222000000
H    -4.919000000    -1.573000000     3.839000000
O     3.924000000    -4.028000000    -0.121000000
H     4.019000000    -3.097000000     0.081000000
H     4.765000000    -4.414000000     0.125000000
O    -3.273000000    -4.393000000    -0.442000000
H    -2.599000000    -4.872000000    -0.924000000
H    -3.560000000    -5.003000000     0.238000000
O     4.022000000    -6.125000000     3.810000000
H     4.476000000    -5.282000000     3.785000000
H     3.131000000    -5.925000000     3.522000000
O     2.687000000     6.900000000    -2.862000000
H     3.389000000     7.118000000    -2.249000000
H     2.734000000     5.948000000    -2.950000000
O     1.232000000    -4.513000000     4.171000000
H     1.235000000    -3.856000000     4.867000000
H     1.095000000    -4.011000000     3.368000000
O     3.704000000    -3.048000000    -4.166000000
H     3.220000000    -2.825000000    -4.961000000
H     3.034000000    -3.353000000    -3.555000000
O     0.197000000    -6.949000000     4.084000000
H     0.697000000    -6.133000000     4.086000000
H     0.833000000    -7.620000000     4.334000000
O     1.438000000    -2.958000000     6.410000000
H     2.077000000    -2.246000000     6.428000000
H     1.099000000    -2.998000000     7.305000000
O     2.066000000    -4.072000000    -2.190000000
H     2.753000000    -4.228000000    -1.541000000
H     1.981000000    -4.905000000    -2.654000000
O    -0.952000000     4.315000000     1.045000000
H    -1.848000000     4.216000000     1.368000000
H    -0.475000000     4.702000000     1.779000000
O     4.964000000    -1.048000000    -1.037000000
H     5.019000000    -0.794000000    -1.958000000
H     4.804000000    -0.226000000    -0.572000000
O    -4.927000000     2.875000000    -2.731000000
H    -5.263000000     2.057000000    -2.364000000
H    -5.660000000     3.487000000    -2.660000000
O     2.338000000     0.882000000    -5.025000000
H     2.169000000     0.046000000    -5.459000000
H     2.933000000     0.663000000    -4.307000000
O    -3.943000000    -5.322000000     4.372000000
H    -4.308000000    -4.438000000     4.395000000
H    -3.347000000    -5.317000000     3.623000000
O     4.967000000     2.219000000    -1.525000000
H     5.601000000     2.787000000    -1.086000000
H     4.417000000     1.882000000    -0.817000000
O     2.289000000     5.711000000     0.598000000
H     2.195000000     5.271000000    -0.247000000
H     1.849000000     6.552000000     0.480000000
O     6.062000000    -0.935000000     2.336000000
H     6.072000000     0.020000000     2.273000000
H     5.153000000    -1.151000000     2.545000000
O    -3.459000000    -2.155000000     1.136000000
H    -2.678000000    -2.303000000     1.669000000
H    -3.572000000    -2.969000000     0.646000000
O    -0.759000000    -5.733000000    -1.089000000
H     0.095000000    -5.651000000    -0.664000000
H    -0.557000000    -5.799000000    -2.022000000
O    -4.194000000     0.350000000     0.897000000
H    -3.850000000    -0.535000000     1.021000000
H    -3.790000000     0.864000000     1.596000000
O    -1.137000000    -3.484000000    -5.014000000
H    -1.947000000    -3.811000000    -4.623000000
H    -0.784000000    -2.878000000    -4.363000000
O    -4.087000000    -2.020000000    -2.107000000
H    -3.557000000    -2.814000000    -2.184000000
H    -3.750000000    -1.581000000    -1.326000000
O    -2.260000000     3.988000000    -3.704000000
H    -1.546000000     3.493000000    -4.107000000
H    -2.805000000     3.324000000    -3.284000000
O    -1.605000000    -1.733000000     7.202000000
H    -0.867000000    -2.331000000     7.323000000
H    -1.708000000    -1.670000000     6.252000000
O    -1.636000000    -1.132000000     4.721000000
H    -1.324000000    -0.239000000     4.574000000
H    -1.286000000    -1.632000000     3.984000000
O     2.535000000     0.833000000     3.391000000
H     3.212000000     1.413000000     3.739000000
H     2.051000000     1.376000000     2.769000000
O    -0.844000000     1.664000000     4.659000000
H     0.057000000     1.748000000     4.345000000
H    -1.146000000     2.566000000     4.764000000
O     0.070000000     4.518000000    -5.969000000
H     0.775000000     4.583000000    -5.325000000
H    -0.347000000     3.677000000    -5.784000000
O    -2.740000000     6.731000000    -3.983000000
H    -2.576000000     5.811000000    -3.775000000
H    -3.673000000     6.853000000    -3.810000000
O     3.063000000    -0.612000000     5.702000000
H     3.084000000     0.135000000     6.301000000
H     2.739000000    -0.249000000     4.878000000
O    -3.503000000     3.704000000     1.513000000
H    -3.578000000     2.861000000     1.962000000
H    -4.372000000     4.096000000     1.592000000
O     3.206000000     3.537000000    -5.407000000
H     4.106000000     3.534000000    -5.734000000
H     2.951000000     2.614000000    -5.398000000
O     1.927000000     3.000000000     1.727000000
H     1.256000000     3.359000000     1.147000000
H     2.024000000     3.656000000     2.416000000
O     4.816000000    -0.434000000    -4.105000000
H     5.438000000    -0.318000000    -4.823000000
H     4.529000000    -1.344000000    -4.180000000
O    -2.003000000    -6.412000000     5.861000000
H    -2.562000000    -5.954000000     5.233000000
H    -1.181000000    -6.554000000     5.390000000
O     2.923000000     4.005000000    -1.848000000
H     2.545000000     3.203000000    -1.489000000
H     3.369000000     3.723000000    -2.647000000
O    -5.791000000     0.505000000    -1.370000000
H    -5.440000000    -0.322000000    -1.699000000
H    -5.422000000     0.591000000    -0.492000000
O    -0.185000000    -2.292000000    -2.768000000
H     0.355000000    -3.044000000    -2.524000000
H    -0.096000000    -1.686000000    -2.033000000
O    -2.639000000     0.750000000    -4.240000000
H    -2.328000000    -0.138000000    -4.063000000
H    -3.546000000     0.634000000    -4.523000000
O    -2.980000000     5.694000000    -0.745000000
H    -2.754000000     5.121000000    -1.478000000
H    -2.524000000     5.314000000     0.006000000
O    -2.114000000    -5.072000000     2.469000000
H    -1.814000000    -4.168000000     2.568000000
H    -1.317000000    -5.598000000     2.538000000
O     2.682000000    -7.803000000     1.437000000
H     2.753000000    -8.002000000     2.370000000
H     1.790000000    -7.473000000     1.329000000
O    -3.565000000     1.438000000     3.482000000
H    -2.713000000     1.418000000     3.919000000
H    -4.201000000     1.394000000     4.196000000
O     1.159000000    -5.434000000     0.806000000
H     0.666000000    -4.758000000     1.271000000
H     1.928000000    -4.978000000     0.466000000
O    -0.447000000     2.027000000    -5.152000000
H     0.366000000     1.524000000    -5.114000000
H    -1.127000000     1.403000000    -4.901000000
O     3.332000000     1.141000000     0.578000000
H     2.703000000     1.831000000     0.789000000
H     2.796000000     0.357000000     0.460000000
O     3.271000000    -1.696000000     2.378000000
H     3.032000000    -0.801000000     2.618000000
H     2.442000000    -2.175000000     2.385000000
