144
-2824.38973
O     1.071000000     1.186000000    -5.835000000
H     0.939000000     1.864000000    -5.172000000
H     0.244000000     1.158000000    -6.317000000
O     3.437000000    -2.859000000     1.929000000
H     3.104000000    -2.973000000     2.819000000
H     4.198000000    -2.287000000     2.030000000
O     5.109000000    -2.023000000    -2.296000000
H     4.779000000    -2.848000000    -1.941000000
H     5.395000000    -1.529000000    -1.528000000
O     0.336000000    -4.703000000    -2.372000000
H     0.696000000    -4.291000000    -1.587000000
H     1.099000000    -5.057000000    -2.828000000
O     2.430000000     2.187000000     3.529000000
H     2.810000000     1.633000000     2.848000000
H     2.197000000     1.579000000     4.230000000
O    -0.518000000    -0.284000000     6.353000000
H    -1.328000000    -0.119000000     6.836000000
H    -0.801000000    -0.414000000     5.448000000
O     3.133000000     2.344000000     0.079000000
H     2.408000000     2.845000000     0.452000000
H     2.714000000     1.592000000    -0.340000000
O    -5.247000000     1.361000000     0.753000000
H    -5.032000000     0.688000000     1.399000000
H    -4.519000000     1.980000000     0.801000000
O    -1.719000000    -6.176000000    -1.103000000
H    -0.795000000    -6.166000000    -1.355000000
H    -1.946000000    -5.254000000    -0.987000000
O    -4.669000000    -0.071000000     5.229000000
H    -5.390000000    -0.650000000     5.475000000
H    -5.087000000     0.771000000     5.050000000
O    -1.902000000    -3.135000000     3.933000000
H    -1.253000000    -3.683000000     3.492000000
H    -1.519000000    -2.258000000     3.927000000
O    -2.250000000    -0.411000000    -6.962000000
H    -2.547000000    -1.102000000    -6.370000000
H    -3.051000000     0.052000000    -7.210000000
O    -3.038000000     2.983000000    -1.896000000
H    -3.123000000     2.030000000    -1.925000000
H    -3.751000000     3.303000000    -2.450000000
O    -0.583000000     4.267000000    -1.233000000
H    -0.399000000     4.628000000    -2.100000000
H    -1.421000000     3.817000000    -1.334000000
O    -2.968000000     0.480000000     7.367000000
H    -3.111000000     1.407000000     7.555000000
H    -3.557000000     0.289000000     6.638000000
O     1.949000000     3.663000000    -4.239000000
H     2.734000000     3.193000000    -4.518000000
H     2.219000000     4.135000000    -3.451000000
O    -1.947000000     6.129000000     0.555000000
H    -1.379000000     5.556000000     0.039000000
H    -2.296000000     6.754000000    -0.080000000
O     2.768000000    -0.631000000    -6.479000000
H     2.455000000    -1.153000000    -5.741000000
H     2.318000000     0.209000000    -6.387000000
O    -4.066000000    -0.802000000     2.771000000
H    -3.338000000    -0.183000000     2.827000000
H    -4.448000000    -0.803000000     3.648000000
O    -2.019000000    -4.839000000    -3.989000000
H    -2.040000000    -4.125000000    -4.626000000
H    -1.251000000    -4.656000000    -3.448000000
O     2.175000000    -3.587000000     4.372000000
H     2.672000000    -4.340000000     4.691000000
H     2.059000000    -3.032000000     5.143000000
O    -2.357000000    -3.029000000     0.351000000
H    -2.800000000    -2.810000000     1.171000000
H    -1.642000000    -2.396000000     0.288000000
O     0.061000000    -4.685000000     2.787000000
H     0.489000000    -5.540000000     2.832000000
H     0.686000000    -4.083000000     3.189000000
O     1.752000000    -4.220000000     0.045000000
H     2.314000000    -3.645000000     0.564000000
H     0.931000000    -4.259000000     0.535000000
O     4.328000000     0.490000000    -3.729000000
H     4.746000000    -0.288000000    -3.361000000
H     4.729000000     0.592000000    -4.592000000
O    -1.168000000    -3.897000000     7.638000000
H    -1.726000000    -3.172000000     7.356000000
H    -1.656000000    -4.683000000     7.395000000
O    -3.218000000    -2.073000000    -4.775000000
H    -3.960000000    -2.495000000    -5.207000000
H    -3.353000000    -2.245000000    -3.843000000
O     5.688000000    -1.028000000     0.492000000
H     5.896000000    -1.515000000     1.290000000
H     5.060000000    -0.363000000     0.774000000
O     0.693000000     4.818000000     3.510000000
H    -0.094000000     4.444000000     3.906000000
H     1.268000000     4.067000000     3.364000000
O     1.242000000    -6.921000000    -0.227000000
H     1.263000000    -5.967000000    -0.144000000
H     2.162000000    -7.176000000    -0.293000000
O     3.883000000    -4.572000000    -1.816000000
H     3.147000000    -4.474000000    -1.212000000
H     3.518000000    -5.045000000    -2.564000000
O     6.555000000    -1.921000000    -4.832000000
H     5.924000000    -1.844000000    -4.117000000
H     7.327000000    -2.317000000    -4.428000000
O     1.329000000     5.165000000     0.880000000
H     0.839000000     5.052000000     1.695000000
H     0.767000000     4.780000000     0.207000000
O    -4.147000000     4.424000000     5.000000000
H    -4.809000000     3.991000000     4.461000000
H    -4.395000000     5.348000000     4.986000000
O    -1.720000000     3.685000000     4.161000000
H    -2.621000000     3.895000000     4.407000000
H    -1.761000000     2.781000000     3.851000000
O     5.815000000     2.200000000    -2.118000000
H     6.703000000     1.866000000    -2.252000000
H     5.290000000     1.756000000    -2.783000000
O    -3.420000000     3.277000000     1.812000000
H    -2.984000000     4.129000000     1.787000000
H    -2.864000000     2.740000000     2.377000000
O    -3.685000000    -2.383000000    -1.901000000
H    -3.059000000    -2.678000000    -1.240000000
H    -4.483000000    -2.877000000    -1.713000000
O    -1.252000000     2.265000000    -4.009000000
H    -1.427000000     3.058000000    -3.503000000
H    -1.587000000     1.554000000    -3.462000000
O     3.892000000     0.007000000     2.898000000
H     3.072000000    -0.166000000     3.360000000
H     4.537000000     0.132000000     3.594000000
O    -0.207000000     4.529000000    -6.038000000
H    -0.524000000     4.077000000    -6.820000000
H     0.207000000     3.842000000    -5.516000000
O    -3.296000000    -2.205000000     7.228000000
H    -3.800000000    -2.212000000     6.414000000
H    -3.177000000    -1.277000000     7.428000000
O     0.021000000     3.644000000     7.058000000
H     0.161000000     3.348000000     7.957000000
H    -0.566000000     2.990000000     6.678000000
O    -2.829000000     0.332000000    -2.725000000
H    -2.817000000    -0.074000000    -3.591000000
H    -2.785000000    -0.404000000    -2.115000000
O    -3.239000000     3.218000000     7.260000000
H    -3.597000000     3.604000000     6.461000000
H    -2.860000000     3.957000000     7.735000000
O     1.514000000    -2.947000000     6.881000000
H     1.623000000    -2.352000000     7.623000000
H     0.596000000    -3.214000000     6.922000000
O     1.190000000    -0.401000000     8.392000000
H     0.508000000    -0.562000000     9.044000000
H     0.716000000    -0.320000000     7.565000000
O     1.819000000    -0.349000000     4.552000000
H     0.961000000    -0.632000000     4.235000000
H     1.790000000    -0.510000000     5.495000000
