144
-2797.77383
O     6.810000000    -0.439000000     2.787000000
H     6.414000000    -1.221000000     3.173000000
H     6.065000000     0.082000000     2.486000000
O     4.429000000     0.792000000     2.580000000
H     4.150000000     1.208000000     1.764000000
H     3.620000000     0.452000000     2.963000000
O    -2.811000000     1.805000000    -3.234000000
H    -3.484000000     2.303000000    -3.698000000
H    -2.950000000     0.899000000    -3.511000000
O     5.610000000     2.680000000    -1.404000000
H     5.113000000     2.257000000    -0.704000000
H     6.000000000     3.450000000    -0.990000000
O    -1.630000000     2.750000000     6.828000000
H    -1.397000000     2.069000000     6.196000000
H    -2.497000000     3.047000000     6.550000000
O    -5.127000000    -0.175000000     3.880000000
H    -5.032000000    -0.159000000     4.832000000
H    -4.230000000    -0.223000000     3.550000000
O    -4.330000000    -1.402000000    -0.943000000
H    -4.258000000    -1.046000000    -1.828000000
H    -4.101000000    -0.669000000    -0.371000000
O    -0.453000000    -3.601000000     3.071000000
H    -1.124000000    -2.987000000     3.368000000
H    -0.945000000    -4.333000000     2.700000000
O    -6.644000000    -0.104000000     1.631000000
H    -6.289000000    -0.559000000     2.394000000
H    -5.872000000     0.193000000     1.149000000
O    -1.823000000     1.899000000    -6.005000000
H    -2.694000000     2.233000000    -5.789000000
H    -1.707000000     1.143000000    -5.429000000
O    -3.904000000     3.443000000     5.649000000
H    -3.788000000     3.122000000     4.755000000
H    -4.052000000     4.384000000     5.549000000
O    -5.239000000    -2.782000000     1.867000000
H    -4.615000000    -2.775000000     1.141000000
H    -4.725000000    -2.511000000     2.628000000
O     3.595000000     2.540000000     0.441000000
H     2.877000000     2.662000000     1.062000000
H     3.164000000     2.333000000    -0.388000000
O     1.875000000    -1.723000000    -5.584000000
H     1.459000000    -2.336000000    -4.978000000
H     2.530000000    -2.248000000    -6.043000000
O    -6.680000000     2.113000000     3.983000000
H    -5.784000000     2.242000000     4.291000000
H    -6.690000000     1.221000000     3.638000000
O     3.789000000     2.312000000    -3.767000000
H     4.611000000     2.394000000    -3.283000000
H     3.328000000     3.133000000    -3.598000000
O     3.652000000     1.075000000    -6.174000000
H     3.662000000     1.660000000    -5.416000000
H     3.104000000     0.339000000    -5.901000000
O     1.989000000    -2.867000000     4.227000000
H     1.546000000    -2.365000000     4.912000000
H     1.282000000    -3.321000000     3.769000000
O     5.872000000    -0.651000000    -3.393000000
H     6.058000000    -1.542000000    -3.690000000
H     4.917000000    -0.597000000    -3.377000000
O    -3.660000000     5.121000000    -0.545000000
H    -4.103000000     4.507000000     0.040000000
H    -2.860000000     5.362000000    -0.078000000
O    -0.828000000    -2.776000000    -1.241000000
H    -0.759000000    -1.823000000    -1.302000000
H    -1.605000000    -2.925000000    -0.703000000
O     0.180000000     3.267000000    -0.483000000
H    -0.539000000     3.343000000     0.144000000
H     0.254000000     2.327000000    -0.650000000
O     1.887000000    -3.536000000    -0.844000000
H     1.648000000    -4.144000000    -0.145000000
H     1.051000000    -3.185000000    -1.152000000
O    -1.081000000     0.947000000     4.925000000
H    -0.662000000     0.210000000     5.369000000
H    -1.473000000     0.563000000     4.140000000
O     1.752000000     2.789000000     2.421000000
H     1.032000000     3.409000000     2.312000000
H     1.324000000     1.960000000     2.634000000
O    -1.260000000     3.278000000     1.866000000
H    -1.404000000     4.158000000     1.518000000
H    -1.831000000     3.227000000     2.633000000
O    -3.039000000    -2.487000000     3.395000000
H    -2.806000000    -1.562000000     3.478000000
H    -3.652000000    -2.645000000     4.113000000
O     4.024000000    -3.087000000     1.246000000
H     4.044000000    -4.022000000     1.043000000
H     3.297000000    -2.744000000     0.727000000
O    -3.876000000    -0.861000000    -3.666000000
H    -4.499000000    -0.764000000    -4.387000000
H    -3.510000000    -1.738000000    -3.783000000
O    -1.985000000     4.366000000    -2.708000000
H    -2.732000000     4.543000000    -2.137000000
H    -1.859000000     3.419000000    -2.651000000
O     3.003000000    -3.932000000    -3.373000000
H     2.183000000    -4.220000000    -3.775000000
H     2.749000000    -3.629000000    -2.502000000
O    -0.865000000    -1.607000000    -6.337000000
H    -1.314000000    -2.311000000    -5.870000000
H    -0.010000000    -1.545000000    -5.911000000
O     6.040000000    -3.526000000    -4.138000000
H     5.113000000    -3.647000000    -3.932000000
H     6.242000000    -4.231000000    -4.753000000
O     7.108000000    -0.476000000    -0.735000000
H     7.110000000    -0.603000000    -1.684000000
H     6.679000000    -1.258000000    -0.389000000
O    -1.947000000    -2.895000000    -3.813000000
H    -1.665000000    -2.878000000    -2.898000000
H    -2.048000000    -3.825000000    -4.015000000
O     0.298000000    -1.091000000     6.229000000
H     0.822000000    -0.844000000     6.991000000
H    -0.218000000    -1.841000000     6.526000000
O    -5.077000000     2.669000000     0.610000000
H    -5.865000000     2.224000000     0.299000000
H    -4.354000000     2.127000000     0.295000000
O    -3.391000000    -3.634000000    -0.530000000
H    -3.713000000    -2.755000000    -0.730000000
H    -3.574000000    -4.142000000    -1.320000000
O    -2.315000000    -5.154000000     1.494000000
H    -2.412000000    -6.030000000     1.121000000
H    -2.601000000    -4.564000000     0.797000000
O     0.833000000    -4.089000000    -5.067000000
H     0.224000000    -4.672000000    -4.614000000
H     0.955000000    -4.492000000    -5.927000000
O     1.462000000     4.101000000    -3.268000000
H     0.947000000     4.000000000    -4.069000000
H     0.810000000     4.154000000    -2.569000000
O     1.805000000     2.453000000     5.749000000
H     1.560000000     2.042000000     6.578000000
H     0.978000000     2.763000000     5.381000000
O    -4.153000000    -0.326000000     6.388000000
H    -3.513000000     0.350000000     6.609000000
H    -4.604000000    -0.508000000     7.213000000
O     1.973000000     0.341000000     3.990000000
H     2.179000000     1.098000000     4.539000000
H     1.220000000    -0.067000000     4.417000000
O    -3.690000000     2.577000000     2.986000000
H    -4.243000000     2.467000000     2.213000000
H    -3.163000000     1.779000000     3.018000000
O     6.521000000    -2.840000000     0.339000000
H     5.712000000    -2.971000000     0.834000000
H     6.422000000    -3.398000000    -0.433000000
O     4.706000000    -2.235000000     3.879000000
H     4.690000000    -2.448000000     2.946000000
H     3.798000000    -2.337000000     4.164000000
O     1.157000000    -5.353000000     1.306000000
H     0.490000000    -4.849000000     1.771000000
H     1.633000000    -5.816000000     1.996000000
