144
-2857.96194
O    -4.068000000    -1.099000000    -3.959000000
H    -3.259000000    -1.057000000    -4.469000000
H    -4.156000000    -0.225000000    -3.577000000
O     5.689000000     1.233000000     0.418000000
H     5.999000000     1.544000000     1.268000000
H     5.083000000     1.912000000     0.121000000
O    -3.955000000     1.505000000    -2.786000000
H    -3.023000000     1.722000000    -2.756000000
H    -4.319000000     1.898000000    -1.994000000
O     0.331000000    -0.602000000    -3.577000000
H    -0.476000000    -0.550000000    -3.066000000
H     0.866000000    -1.249000000    -3.116000000
O    -2.426000000     4.294000000    -0.537000000
H    -1.720000000     4.047000000     0.061000000
H    -1.977000000     4.569000000    -1.337000000
O     1.745000000    -2.709000000     2.914000000
H     2.468000000    -2.342000000     3.423000000
H     2.154000000    -3.025000000     2.109000000
O     1.277000000     7.138000000     3.513000000
H     1.634000000     6.269000000     3.330000000
H     0.739000000     7.016000000     4.295000000
O    -0.613000000     5.485000000    -2.737000000
H    -0.597000000     6.441000000    -2.677000000
H     0.302000000     5.224000000    -2.639000000
O     4.190000000     3.657000000    -0.024000000
H     4.076000000     3.478000000    -0.957000000
H     3.303000000     3.812000000     0.301000000
O    -5.512000000     0.448000000     0.156000000
H    -5.253000000     1.257000000    -0.286000000
H    -5.929000000     0.741000000     0.966000000
O     3.517000000    -3.389000000     0.906000000
H     3.378000000    -3.832000000     0.069000000
H     4.166000000    -2.712000000     0.714000000
O    -0.385000000     8.018000000    -1.521000000
H    -0.443000000     7.576000000    -0.674000000
H    -0.573000000     8.935000000    -1.325000000
O     0.032000000     6.197000000     1.187000000
H     0.733000000     6.418000000     1.801000000
H    -0.020000000     5.242000000     1.216000000
O     0.227000000    -5.077000000     1.532000000
H     0.297000000    -4.125000000     1.466000000
H     0.327000000    -5.260000000     2.467000000
O    -3.399000000     0.215000000     3.543000000
H    -3.123000000     1.130000000     3.490000000
H    -2.603000000    -0.263000000     3.775000000
O     1.466000000     1.965000000     4.269000000
H     0.984000000     1.140000000     4.218000000
H     2.326000000     1.764000000     3.900000000
O     3.982000000     2.401000000     3.137000000
H     4.125000000     1.456000000     3.086000000
H     4.584000000     2.770000000     2.491000000
O    -1.720000000     3.150000000    -3.015000000
H    -1.269000000     3.989000000    -2.928000000
H    -2.267000000     3.252000000    -3.795000000
O    -2.958000000    -5.353000000    -2.157000000
H    -3.700000000    -4.863000000    -1.802000000
H    -3.283000000    -6.248000000    -2.249000000
O    -5.810000000     2.629000000     2.121000000
H    -4.884000000     2.673000000     2.361000000
H    -5.856000000     3.050000000     1.263000000
O    -3.514000000    -2.882000000     2.660000000
H    -2.578000000    -3.082000000     2.648000000
H    -3.568000000    -1.974000000     2.361000000
O    -6.110000000    -2.173000000     0.791000000
H    -6.540000000    -1.716000000     1.514000000
H    -5.792000000    -1.474000000     0.220000000
O    -5.208000000    -4.082000000    -1.343000000
H    -6.051000000    -4.491000000    -1.148000000
H    -5.137000000    -3.366000000    -0.712000000
O    -2.415000000    -4.895000000    -5.771000000
H    -2.800000000    -4.137000000    -6.211000000
H    -2.575000000    -4.739000000    -4.841000000
O     1.981000000     4.688000000     2.848000000
H     1.578000000     4.284000000     2.079000000
H     2.444000000     3.971000000     3.281000000
O     1.536000000    -8.404000000    -2.274000000
H     0.846000000    -9.025000000    -2.041000000
H     1.341000000    -7.623000000    -1.757000000
O     2.054000000     5.030000000    -2.211000000
H     1.808000000     4.603000000    -1.390000000
H     2.427000000     5.869000000    -1.943000000
O     0.525000000    -4.255000000    -5.882000000
H     0.199000000    -4.959000000    -6.442000000
H     0.138000000    -4.433000000    -5.025000000
O     5.658000000     5.774000000     0.925000000
H     5.298000000     4.997000000     0.496000000
H     6.050000000     5.442000000     1.733000000
O    -0.419000000    -5.318000000    -3.284000000
H    -1.361000000    -5.378000000    -3.125000000
H    -0.076000000    -4.852000000    -2.522000000
O    -4.646000000    -3.710000000    -3.974000000
H    -4.916000000    -3.933000000    -3.083000000
H    -4.328000000    -2.809000000    -3.910000000
O     1.614000000    -6.940000000    -0.015000000
H     2.107000000    -7.398000000     0.666000000
H     0.947000000    -6.447000000     0.464000000
O     2.461000000     2.187000000    -4.892000000
H     2.199000000     3.025000000    -5.273000000
H     2.007000000     2.155000000    -4.050000000
O    -2.347000000     4.360000000     4.895000000
H    -2.988000000     4.339000000     5.605000000
H    -1.525000000     4.090000000     5.305000000
O    -4.916000000     3.332000000    -0.728000000
H    -5.538000000     4.036000000    -0.913000000
H    -4.072000000     3.775000000    -0.641000000
O    -1.026000000    -3.037000000     3.646000000
H    -0.192000000    -2.674000000     3.348000000
H    -0.784000000    -3.817000000     4.145000000
O     3.622000000    -0.797000000    -2.668000000
H     2.906000000    -1.397000000    -2.460000000
H     3.799000000    -0.948000000    -3.596000000
O     0.788000000     2.167000000    -2.778000000
H     0.007000000     2.675000000    -2.558000000
H     0.469000000     1.270000000    -2.881000000
O    -4.612000000     6.128000000     3.036000000
H    -3.891000000     5.833000000     2.480000000
H    -4.184000000     6.576000000     3.766000000
O    -2.655000000     2.600000000     2.777000000
H    -2.025000000     2.806000000     2.086000000
H    -2.539000000     3.298000000     3.422000000
O     3.882000000    -0.125000000     2.750000000
H     4.062000000    -0.921000000     3.249000000
H     4.021000000    -0.377000000     1.838000000
O     5.189000000    -1.612000000    -0.242000000
H     5.792000000    -0.884000000    -0.097000000
H     4.650000000    -1.332000000    -0.982000000
O     0.062000000     3.401000000     6.051000000
H    -0.341000000     2.656000000     6.497000000
H     0.500000000     3.017000000     5.291000000
O     2.740000000    -5.040000000    -1.634000000
H     3.393000000    -5.599000000    -2.056000000
H     2.368000000    -5.588000000    -0.943000000
O     1.928000000    -2.999000000    -3.097000000
H     2.407000000    -3.683000000    -2.629000000
H     1.788000000    -3.361000000    -3.972000000
O     0.165000000    -0.314000000     3.430000000
H     0.721000000    -1.077000000     3.274000000
H     0.285000000     0.232000000     2.653000000
O     4.046000000     2.328000000    -2.355000000
H     3.153000000     2.590000000    -2.578000000
H     4.042000000     1.374000000    -2.427000000
O    -2.690000000     6.816000000     0.907000000
H    -2.964000000     6.120000000     0.309000000
H    -1.739000000     6.723000000     0.963000000
