144
-2801.35064
O    -3.719000000    -1.571000000    -3.648000000
H    -2.816000000    -1.431000000    -3.363000000
H    -4.225000000    -1.600000000    -2.836000000
O    -1.935000000    -6.915000000    -1.544000000
H    -1.010000000    -6.837000000    -1.778000000
H    -2.366000000    -6.215000000    -2.034000000
O    -4.638000000     1.671000000     0.240000000
H    -4.219000000     2.206000000    -0.435000000
H    -4.941000000     0.892000000    -0.226000000
O     1.842000000    -1.579000000    -4.196000000
H     1.783000000    -0.649000000    -3.978000000
H     2.554000000    -1.909000000    -3.647000000
O    -0.327000000     1.751000000    -4.268000000
H     0.061000000     2.030000000    -3.439000000
H     0.341000000     1.949000000    -4.924000000
O     2.629000000    -0.471000000     2.642000000
H     1.703000000    -0.394000000     2.874000000
H     3.082000000     0.083000000     3.279000000
O     2.235000000    -4.767000000    -4.711000000
H     1.354000000    -4.428000000    -4.873000000
H     2.575000000    -4.222000000    -4.002000000
O    -4.954000000     0.164000000     2.520000000
H    -5.803000000    -0.250000000     2.362000000
H    -4.504000000     0.117000000     1.676000000
O    -1.530000000     4.918000000     0.969000000
H    -1.044000000     4.495000000     0.261000000
H    -1.010000000     4.745000000     1.754000000
O     4.615000000     6.673000000    -1.812000000
H     3.788000000     6.305000000    -1.502000000
H     5.157000000     6.739000000    -1.026000000
O    -4.023000000     4.676000000     2.826000000
H    -3.610000000     5.479000000     2.509000000
H    -3.450000000     4.375000000     3.531000000
O     1.117000000     5.048000000    -4.051000000
H     0.668000000     5.821000000    -3.710000000
H     1.074000000     4.412000000    -3.337000000
O     0.109000000    -7.971000000     1.520000000
H    -0.225000000    -7.094000000     1.332000000
H     0.494000000    -8.263000000     0.695000000
O     1.796000000    -4.897000000     2.259000000
H     0.868000000    -4.723000000     2.416000000
H     1.971000000    -5.711000000     2.732000000
O     5.502000000    -0.435000000    -4.252000000
H     5.543000000    -0.146000000    -5.164000000
H     5.553000000     0.373000000    -3.742000000
O    -1.703000000     7.403000000     0.345000000
H    -1.474000000     6.475000000     0.395000000
H    -2.542000000     7.468000000     0.800000000
O    -3.377000000     2.360000000    -3.561000000
H    -3.205000000     3.284000000    -3.741000000
H    -2.526000000     1.933000000    -3.663000000
O     2.387000000    -5.548000000    -0.648000000
H     3.032000000    -6.244000000    -0.525000000
H     2.284000000    -5.161000000     0.221000000
O    -1.308000000    -0.660000000    -2.858000000
H    -1.018000000    -0.256000000    -2.040000000
H    -0.889000000    -0.139000000    -3.544000000
O     0.744000000    -6.391000000    -2.670000000
H     1.074000000    -6.102000000    -3.521000000
H     1.282000000    -5.921000000    -2.033000000
O    -1.690000000    -3.226000000     4.741000000
H    -1.265000000    -2.385000000     4.570000000
H    -1.032000000    -3.736000000     5.213000000
O    -1.980000000     3.365000000     4.387000000
H    -1.374000000     2.864000000     3.841000000
H    -1.870000000     2.999000000     5.265000000
O     4.915000000     1.573000000     0.066000000
H     4.979000000     2.089000000    -0.738000000
H     4.749000000     0.680000000    -0.235000000
O     2.750000000     1.538000000    -3.896000000
H     3.296000000     2.292000000    -4.117000000
H     2.169000000     1.857000000    -3.206000000
O    -1.752000000     4.558000000    -2.293000000
H    -1.096000000     4.295000000    -1.647000000
H    -1.283000000     5.147000000    -2.884000000
O    -4.218000000    -4.058000000     3.183000000
H    -4.974000000    -3.703000000     3.651000000
H    -3.463000000    -3.777000000     3.700000000
O    -4.987000000    -0.875000000    -0.663000000
H    -4.489000000    -1.560000000    -0.216000000
H    -5.555000000    -1.349000000    -1.270000000
O     2.917000000     3.407000000    -6.990000000
H     2.639000000     3.821000000    -6.173000000
H     3.556000000     4.016000000    -7.361000000
O     3.232000000     5.696000000    -5.356000000
H     2.419000000     5.472000000    -4.904000000
H     2.965000000     6.312000000    -6.039000000
O     0.564000000    -4.533000000     5.972000000
H     1.158000000    -4.511000000     6.723000000
H     0.993000000    -5.115000000     5.345000000
O     0.283000000     0.344000000     4.135000000
H     0.747000000     0.746000000     4.869000000
H     0.014000000    -0.514000000     4.462000000
O     4.465000000     4.684000000     2.096000000
H     3.863000000     4.446000000     1.391000000
H     4.056000000     4.336000000     2.888000000
O     1.134000000    -2.209000000     4.795000000
H     0.889000000    -3.103000000     5.033000000
H     2.056000000    -2.139000000     5.044000000
O    -0.467000000    -3.122000000    -3.997000000
H     0.349000000    -2.652000000    -4.165000000
H    -0.857000000    -2.667000000    -3.251000000
O     4.356000000     3.190000000    -2.203000000
H     4.734000000     3.794000000    -2.843000000
H     3.417000000     3.202000000    -2.387000000
O    -3.874000000    -3.038000000     0.723000000
H    -3.472000000    -3.667000000     0.123000000
H    -3.882000000    -3.486000000     1.569000000
O    -1.264000000    -5.636000000     2.640000000
H    -1.958000000    -5.059000000     2.322000000
H    -1.710000000    -6.245000000     3.229000000
O    -3.887000000     5.167000000    -0.554000000
H    -3.360000000     5.133000000     0.244000000
H    -3.266000000     4.982000000    -1.259000000
O    -6.307000000     3.470000000     1.871000000
H    -5.608000000     3.993000000     2.264000000
H    -5.851000000     2.755000000     1.427000000
O     2.220000000     5.683000000    -1.375000000
H     1.496000000     6.237000000    -1.081000000
H     1.913000000     4.789000000    -1.225000000
O    -0.826000000     7.150000000    -3.474000000
H    -1.781000000     7.172000000    -3.525000000
H    -0.572000000     8.063000000    -3.340000000
O     3.081000000    -3.494000000    -2.474000000
H     2.970000000    -4.171000000    -1.806000000
H     3.998000000    -3.230000000    -2.398000000
O     1.336000000     5.657000000     3.297000000
H     1.897000000     5.936000000     4.020000000
H     1.277000000     4.706000000     3.392000000
O     3.955000000    -2.784000000     2.002000000
H     3.207000000    -3.338000000     2.226000000
H     3.691000000    -1.905000000     2.274000000
O     4.854000000    -1.117000000    -0.307000000
H     4.485000000    -1.633000000     0.410000000
H     5.245000000    -1.766000000    -0.892000000
O     0.215000000     2.688000000     2.765000000
H     0.940000000     2.712000000     2.140000000
H     0.356000000     1.883000000     3.264000000
O     2.778000000     2.298000000     1.579000000
H     3.630000000     2.250000000     1.146000000
H     2.544000000     1.386000000     1.748000000
O    -4.571000000     1.809000000     4.776000000
H    -4.525000000     1.210000000     4.030000000
H    -3.826000000     2.398000000     4.657000000
