144
-2804.94096
O    -6.371000000    -4.171000000    -0.136000000
H    -6.796000000    -3.612000000     0.515000000
H    -5.435000000    -4.081000000     0.045000000
O    -1.065000000     0.209000000    -5.790000000
H    -1.386000000    -0.030000000    -4.920000000
H    -1.555000000     0.998000000    -6.019000000
O     5.695000000     1.253000000    -2.539000000
H     5.106000000     2.007000000    -2.551000000
H     5.701000000     0.968000000    -1.625000000
O     4.713000000    -3.083000000    -0.105000000
H     5.564000000    -2.968000000    -0.529000000
H     4.590000000    -4.031000000    -0.070000000
O     0.058000000     5.588000000     2.254000000
H     0.410000000     6.423000000     1.945000000
H     0.717000000     4.942000000     2.000000000
O    -1.841000000     1.710000000     3.624000000
H    -2.619000000     1.254000000     3.302000000
H    -1.217000000     1.010000000     3.817000000
O    -3.961000000     0.455000000     2.610000000
H    -3.863000000    -0.423000000     2.240000000
H    -4.782000000     0.780000000     2.241000000
O     4.905000000    -1.588000000     2.386000000
H     4.910000000    -2.106000000     1.581000000
H     4.371000000    -2.098000000     2.996000000
O    -2.248000000     5.586000000    -0.782000000
H    -2.313000000     6.464000000    -1.158000000
H    -1.318000000     5.367000000    -0.843000000
O    -2.746000000    -3.287000000    -3.543000000
H    -3.168000000    -2.732000000    -2.886000000
H    -1.819000000    -3.057000000    -3.491000000
O    -4.612000000    -1.479000000    -1.614000000
H    -4.212000000    -2.034000000    -0.945000000
H    -5.424000000    -1.169000000    -1.213000000
O    -6.514000000    -0.333000000    -0.398000000
H    -6.287000000     0.416000000     0.153000000
H    -7.384000000    -0.124000000    -0.740000000
O    -5.890000000    -2.098000000     1.784000000
H    -6.430000000    -1.416000000     1.386000000
H    -5.019000000    -1.961000000     1.412000000
O     4.153000000    -5.245000000     2.246000000
H     4.172000000    -4.421000000     2.734000000
H     4.583000000    -5.875000000     2.823000000
O     1.267000000     1.466000000    -6.633000000
H     1.959000000     0.918000000    -6.262000000
H     0.455000000     1.021000000    -6.392000000
O    -2.379000000     2.736000000    -5.545000000
H    -2.084000000     3.646000000    -5.505000000
H    -2.884000000     2.612000000    -4.742000000
O     3.409000000     2.642000000     4.781000000
H     2.867000000     2.028000000     4.286000000
H     4.042000000     2.972000000     4.144000000
O     0.215000000    -5.624000000     1.292000000
H    -0.215000000    -6.227000000     0.685000000
H     0.335000000    -4.820000000     0.786000000
O    -3.672000000    -3.871000000     3.555000000
H    -4.157000000    -3.089000000     3.817000000
H    -2.960000000    -3.539000000     3.008000000
O     1.603000000    -4.768000000     5.568000000
H     1.611000000    -5.672000000     5.883000000
H     0.781000000    -4.690000000     5.085000000
O    -4.171000000     2.346000000    -2.625000000
H    -4.331000000     2.843000000    -1.822000000
H    -4.961000000     2.476000000    -3.149000000
O    -1.978000000     4.370000000     3.482000000
H    -1.964000000     3.435000000     3.275000000
H    -1.334000000     4.756000000     2.888000000
O     1.597000000    -0.646000000     4.799000000
H     2.251000000    -1.335000000     4.685000000
H     1.730000000    -0.336000000     5.695000000
O    -7.386000000    -3.050000000     4.249000000
H    -7.289000000    -3.976000000     4.026000000
H    -7.400000000    -2.601000000     3.404000000
O     0.103000000     4.174000000    -6.413000000
H     0.730000000     4.611000000    -6.988000000
H     0.315000000     3.243000000    -6.489000000
O    -4.204000000    -6.480000000     2.542000000
H    -5.158000000    -6.459000000     2.469000000
H    -3.968000000    -5.603000000     2.846000000
O     1.741000000     1.319000000     2.645000000
H     1.311000000     0.744000000     3.278000000
H     2.143000000     0.722000000     2.014000000
O    -3.381000000     0.010000000    -3.787000000
H    -3.619000000     0.839000000    -3.373000000
H    -4.049000000    -0.607000000    -3.487000000
O     0.629000000    -4.165000000    -1.483000000
H     0.376000000    -4.753000000    -2.194000000
H     0.214000000    -3.331000000    -1.702000000
O     0.414000000     4.971000000    -0.844000000
H     0.675000000     4.050000000    -0.844000000
H     1.089000000     5.411000000    -0.326000000
O     2.426000000     4.030000000     1.705000000
H     3.319000000     3.770000000     1.931000000
H     1.884000000     3.293000000     1.985000000
O    -5.640000000     1.899000000     1.015000000
H    -5.005000000     2.527000000     0.671000000
H    -6.259000000     2.433000000     1.512000000
O     3.498000000    -3.121000000     4.242000000
H     2.727000000    -3.592000000     4.558000000
H     4.240000000    -3.633000000     4.566000000
O    -0.458000000    -1.892000000    -2.342000000
H    -0.417000000    -1.051000000    -1.885000000
H     0.123000000    -1.784000000    -3.095000000
O    -4.131000000    -4.578000000     6.012000000
H    -4.023000000    -4.330000000     5.093000000
H    -3.268000000    -4.437000000     6.401000000
O    -1.223000000    -1.021000000     4.875000000
H    -0.333000000    -0.753000000     5.105000000
H    -1.109000000    -1.620000000     4.137000000
O     4.769000000     0.880000000    -5.129000000
H     5.053000000     0.783000000    -4.220000000
H     5.475000000     0.490000000    -5.644000000
O    -1.603000000    -3.498000000     6.237000000
H    -1.125000000    -3.981000000     5.563000000
H    -1.386000000    -2.580000000     6.076000000
O     3.297000000    -4.826000000    -2.546000000
H     2.403000000    -5.145000000    -2.666000000
H     3.208000000    -4.082000000    -1.951000000
O     4.940000000     3.382000000     2.547000000
H     5.656000000     2.911000000     2.974000000
H     5.216000000     4.298000000     2.557000000
O    -3.695000000    -4.151000000    -0.119000000
H    -2.976000000    -4.738000000    -0.355000000
H    -3.333000000    -3.593000000     0.569000000
O     4.980000000     4.104000000    -2.740000000
H     4.210000000     3.973000000    -3.294000000
H     4.724000000     4.799000000    -2.133000000
O     5.921000000     0.617000000     0.160000000
H     6.173000000    -0.277000000     0.390000000
H     5.227000000     0.837000000     0.782000000
O    -4.255000000     4.091000000    -0.224000000
H    -4.451000000     4.462000000     0.636000000
H    -3.488000000     4.578000000    -0.527000000
O    -0.235000000    -4.219000000     3.690000000
H    -0.031000000    -4.808000000     2.963000000
H    -0.753000000    -3.519000000     3.292000000
O     4.088000000     6.383000000    -1.019000000
H     4.829000000     6.818000000    -0.596000000
H     3.428000000     7.070000000    -1.112000000
O     2.636000000     5.153000000    -3.923000000
H     3.280000000     5.807000000    -4.194000000
H     1.911000000     5.664000000    -3.564000000
O    -4.343000000     0.157000000     5.431000000
H    -5.242000000     0.386000000     5.197000000
H    -3.931000000    -0.078000000     4.599000000
