144
-2822.93947
O    -2.539000000     6.855000000     0.782000000
H    -1.735000000     6.980000000     0.278000000
H    -3.155000000     7.487000000     0.412000000
O    -5.506000000     5.044000000    -3.602000000
H    -5.194000000     4.314000000    -4.136000000
H    -4.709000000     5.485000000    -3.310000000
O    -0.536000000     6.498000000    -4.774000000
H    -0.751000000     6.716000000    -3.867000000
H    -0.237000000     5.589000000    -4.737000000
O     2.425000000    -0.190000000     4.333000000
H     2.793000000     0.580000000     3.899000000
H     1.481000000    -0.037000000     4.333000000
O     3.761000000     7.435000000    -1.574000000
H     4.365000000     7.095000000    -2.234000000
H     3.405000000     6.654000000    -1.150000000
O    -3.122000000     1.120000000    -5.043000000
H    -2.686000000     1.942000000    -5.267000000
H    -3.197000000     1.140000000    -4.089000000
O    -2.293000000    -5.785000000     5.038000000
H    -2.403000000    -6.040000000     5.954000000
H    -2.457000000    -4.842000000     5.031000000
O     2.677000000     4.910000000    -0.419000000
H     1.829000000     4.583000000    -0.721000000
H     3.319000000     4.415000000    -0.928000000
O     1.660000000    -6.279000000    -1.370000000
H     1.943000000    -6.695000000    -0.555000000
H     2.451000000    -6.241000000    -1.906000000
O     4.236000000    -5.171000000     2.899000000
H     4.126000000    -4.277000000     3.222000000
H     3.851000000    -5.721000000     3.581000000
O    -2.798000000     4.879000000    -2.793000000
H    -2.458000000     4.520000000    -1.974000000
H    -2.595000000     4.213000000    -3.450000000
O     1.061000000     1.965000000     2.764000000
H     0.448000000     1.385000000     2.313000000
H     0.529000000     2.408000000     3.425000000
O    -3.489000000    -1.922000000    -1.690000000
H    -3.252000000    -1.118000000    -1.228000000
H    -3.625000000    -2.566000000    -0.995000000
O    -5.635000000     5.204000000     2.342000000
H    -5.198000000     5.327000000     3.185000000
H    -5.005000000     4.715000000     1.814000000
O    -2.525000000     2.424000000     2.959000000
H    -2.951000000     3.048000000     2.372000000
H    -2.162000000     2.965000000     3.660000000
O    -5.746000000    -1.979000000     4.375000000
H    -6.131000000    -1.113000000     4.505000000
H    -4.814000000    -1.857000000     4.557000000
O     1.926000000    -7.245000000     1.924000000
H     2.599000000    -6.841000000     2.472000000
H     1.099000000    -6.994000000     2.335000000
O    -2.332000000    -3.126000000     4.924000000
H    -1.806000000    -2.420000000     4.549000000
H    -2.275000000    -2.991000000     5.870000000
O     2.601000000     1.985000000    -6.104000000
H     2.199000000     2.135000000    -5.249000000
H     3.280000000     1.331000000    -5.938000000
O    -1.329000000     3.045000000    -5.664000000
H    -0.698000000     3.483000000    -5.092000000
H    -0.791000000     2.603000000    -6.320000000
O    -5.605000000     0.685000000    -0.108000000
H    -6.389000000     1.157000000     0.174000000
H    -5.350000000     0.168000000     0.656000000
O    -0.605000000    -4.273000000    -3.504000000
H    -0.497000000    -5.152000000    -3.868000000
H     0.248000000    -3.857000000    -3.629000000
O     4.415000000     3.496000000    -2.009000000
H     4.208000000     3.732000000    -2.913000000
H     4.995000000     2.738000000    -2.085000000
O     0.766000000    -0.409000000    -4.676000000
H     0.011000000    -0.535000000    -4.101000000
H     0.526000000    -0.857000000    -5.488000000
O    -3.079000000     7.629000000    -2.106000000
H    -3.715000000     7.773000000    -1.405000000
H    -3.174000000     6.703000000    -2.328000000
O    -3.881000000     1.326000000    -1.976000000
H    -3.429000000     2.052000000    -1.547000000
H    -4.528000000     1.033000000    -1.333000000
O     4.772000000    -5.468000000     0.251000000
H     5.633000000    -5.885000000     0.289000000
H     4.491000000    -5.414000000     1.164000000
O     5.070000000    -1.123000000    -0.543000000
H     4.580000000    -1.917000000    -0.758000000
H     5.420000000    -1.288000000     0.333000000
O     3.922000000     5.072000000     2.142000000
H     3.350000000     5.129000000     1.376000000
H     4.386000000     5.909000000     2.158000000
O    -3.535000000    -0.337000000     2.995000000
H    -2.753000000     0.131000000     2.704000000
H    -4.067000000     0.331000000     3.428000000
O    -1.023000000    -1.398000000    -2.929000000
H    -1.633000000    -0.921000000    -2.367000000
H    -1.248000000    -2.319000000    -2.800000000
O    -0.175000000     5.358000000     2.640000000
H    -0.593000000     5.001000000     1.857000000
H     0.159000000     6.212000000     2.365000000
O     5.231000000     1.012000000     2.697000000
H     5.982000000     1.542000000     2.430000000
H     4.567000000     1.183000000     2.029000000
O     5.053000000     0.895000000    -2.661000000
H     4.663000000     0.530000000    -3.456000000
H     4.955000000     0.203000000    -2.007000000
O     0.755000000     4.021000000    -4.032000000
H     1.601000000     4.449000000    -4.158000000
H     0.745000000     3.775000000    -3.107000000
O     3.081000000     1.608000000     1.217000000
H     2.573000000     1.197000000     0.517000000
H     2.422000000     1.927000000     1.835000000
O     3.467000000    -3.461000000    -1.289000000
H     4.035000000    -3.917000000    -0.668000000
H     2.656000000    -3.970000000    -1.290000000
O    -4.742000000    -1.855000000     1.167000000
H    -3.990000000    -1.707000000     1.741000000
H    -5.315000000    -2.435000000     1.668000000
O    -0.162000000     1.028000000     5.175000000
H    -0.990000000     0.625000000     5.437000000
H    -0.240000000     1.940000000     5.455000000
O     3.467000000    -0.168000000    -4.560000000
H     3.652000000    -0.755000000    -5.293000000
H     2.516000000    -0.205000000    -4.457000000
O    -0.447000000     5.903000000    -0.684000000
H     0.378000000     6.350000000    -0.871000000
H    -0.340000000     5.032000000    -1.067000000
O     2.037000000    -3.157000000    -3.756000000
H     1.834000000    -2.226000000    -3.846000000
H     2.797000000    -3.182000000    -3.175000000
O    -3.140000000     4.311000000     1.097000000
H    -3.115000000     5.262000000     1.204000000
H    -2.684000000     4.150000000     0.271000000
O     4.172000000    -2.650000000     4.053000000
H     4.832000000    -2.660000000     4.746000000
H     3.595000000    -1.921000000     4.281000000
O    -2.130000000    -7.749000000     0.055000000
H    -1.466000000    -7.124000000    -0.236000000
H    -2.361000000    -7.459000000     0.938000000
O    -0.952000000    -5.550000000    -1.029000000
H    -0.038000000    -5.826000000    -0.963000000
H    -1.007000000    -5.103000000    -1.873000000
O     6.256000000    -1.718000000     2.179000000
H     5.608000000    -2.119000000     2.758000000
H     6.476000000    -0.889000000     2.603000000
O     0.492000000    -6.368000000     3.989000000
H    -0.417000000    -6.339000000     4.286000000
H     0.933000000    -5.689000000     4.499000000
