144
-2819.89241
O    -5.591000000     3.675000000    -2.093000000
H    -4.692000000     4.001000000    -2.129000000
H    -5.957000000     3.888000000    -2.952000000
O     1.807000000    -0.962000000     4.642000000
H     1.352000000    -0.683000000     3.848000000
H     1.922000000    -0.158000000     5.148000000
O    -0.859000000    -3.196000000    -3.407000000
H    -0.845000000    -2.248000000    -3.535000000
H    -0.100000000    -3.515000000    -3.895000000
O     6.704000000    -2.578000000     0.672000000
H     7.532000000    -2.183000000     0.945000000
H     6.408000000    -3.067000000     1.440000000
O     2.328000000    -5.592000000    -0.414000000
H     1.514000000    -5.090000000    -0.449000000
H     2.534000000    -5.648000000     0.519000000
O     0.235000000     4.904000000     0.184000000
H    -0.293000000     4.412000000    -0.445000000
H     1.100000000     4.961000000    -0.222000000
O     2.008000000     7.443000000    -2.183000000
H     2.286000000     7.062000000    -3.016000000
H     2.234000000     6.781000000    -1.530000000
O    -4.036000000     3.374000000     1.333000000
H    -4.591000000     2.597000000     1.387000000
H    -3.635000000     3.323000000     0.465000000
O     2.680000000     5.117000000    -0.622000000
H     3.371000000     5.375000000    -0.012000000
H     3.146000000     4.868000000    -1.420000000
O    -0.483000000     3.873000000     3.091000000
H    -0.385000000     3.990000000     2.146000000
H     0.413000000     3.876000000     3.427000000
O    -5.667000000    -0.607000000     0.885000000
H    -5.333000000     0.232000000     0.567000000
H    -5.376000000    -0.649000000     1.797000000
O     3.695000000    -6.055000000    -2.723000000
H     3.306000000    -5.930000000    -1.857000000
H     3.051000000    -6.578000000    -3.200000000
O    -5.604000000     1.138000000     3.278000000
H    -5.293000000     1.803000000     3.893000000
H    -6.341000000     1.552000000     2.830000000
O    -1.442000000     1.572000000     4.398000000
H    -1.635000000     2.453000000     4.077000000
H    -0.650000000     1.314000000     3.927000000
O     1.669000000     6.628000000    -5.123000000
H     1.783000000     6.230000000    -5.986000000
H     1.241000000     5.950000000    -4.601000000
O    -3.734000000    -3.013000000     2.900000000
H    -3.375000000    -2.476000000     3.607000000
H    -4.606000000    -3.261000000     3.207000000
O    -1.381000000     3.102000000    -5.302000000
H    -0.944000000     3.691000000    -4.687000000
H    -2.149000000     2.786000000    -4.827000000
O    -5.235000000     1.534000000    -0.570000000
H    -5.665000000     2.297000000    -0.958000000
H    -4.308000000     1.773000000    -0.537000000
O    -0.389000000    -4.907000000    -0.722000000
H    -0.770000000    -4.345000000    -1.397000000
H    -1.036000000    -5.602000000    -0.596000000
O     5.163000000     3.361000000    -2.766000000
H     5.665000000     2.700000000    -2.290000000
H     4.370000000     2.904000000    -3.047000000
O    -3.147000000     1.575000000    -3.668000000
H    -4.062000000     1.762000000    -3.881000000
H    -3.028000000     1.933000000    -2.788000000
O    -4.781000000     6.151000000    -0.165000000
H    -4.350000000     5.971000000    -1.001000000
H    -4.098000000     6.011000000     0.492000000
O    -3.003000000     5.204000000    -2.060000000
H    -2.737000000     4.449000000    -1.536000000
H    -2.180000000     5.632000000    -2.298000000
O    -7.456000000     4.365000000    -0.080000000
H    -6.963000000     4.109000000    -0.859000000
H    -6.805000000     4.769000000     0.494000000
O     4.670000000    -3.310000000     2.709000000
H     4.250000000    -3.454000000     3.557000000
H     4.245000000    -3.937000000     2.122000000
O     5.675000000    -1.937000000    -3.011000000
H     5.069000000    -1.511000000    -3.618000000
H     5.131000000    -2.182000000    -2.262000000
O    -3.113000000    -0.508000000     3.856000000
H    -2.446000000     0.085000000     4.202000000
H    -3.915000000     0.014000000     3.845000000
O    -3.282000000    -1.054000000    -1.774000000
H    -2.574000000    -0.941000000    -1.141000000
H    -3.584000000    -1.952000000    -1.639000000
O    -0.734000000     7.619000000    -3.326000000
H     0.136000000     7.823000000    -3.667000000
H    -0.997000000     8.408000000    -2.852000000
O     0.158000000    -3.182000000     6.020000000
H     0.637000000    -3.416000000     6.815000000
H     0.679000000    -2.484000000     5.624000000
O     2.556000000     3.193000000    -3.553000000
H     2.417000000     2.395000000    -4.063000000
H     1.674000000     3.522000000    -3.379000000
O     0.095000000     4.740000000    -3.422000000
H    -0.347000000     5.576000000    -3.275000000
H    -0.290000000     4.148000000    -2.776000000
O     0.687000000     0.982000000     2.652000000
H     1.626000000     1.109000000     2.518000000
H     0.370000000     0.640000000     1.816000000
O     4.424000000    -2.501000000    -0.717000000
H     5.265000000    -2.541000000    -0.262000000
H     3.811000000    -2.938000000    -0.126000000
O    -4.533000000    -3.019000000     0.249000000
H    -4.259000000    -2.876000000     1.154000000
H    -5.176000000    -2.329000000     0.082000000
O    -4.268000000    -0.956000000    -4.553000000
H    -3.570000000    -1.154000000    -5.177000000
H    -3.809000000    -0.720000000    -3.747000000
O    -4.144000000    -5.871000000    -0.027000000
H    -4.905000000    -6.209000000     0.444000000
H    -4.257000000    -4.921000000    -0.015000000
O     4.163000000    -0.819000000    -4.774000000
H     3.352000000    -0.343000000    -4.597000000
H     4.155000000    -0.963000000    -5.721000000
O    -2.429000000     6.039000000     1.814000000
H    -1.761000000     6.253000000     2.465000000
H    -2.047000000     5.325000000     1.304000000
O    -6.993000000     0.097000000    -2.689000000
H    -6.378000000    -0.115000000    -1.986000000
H    -7.624000000     0.692000000    -2.284000000
O    -0.914000000    -0.423000000    -3.855000000
H    -1.104000000    -0.495000000    -4.790000000
H    -1.566000000     0.194000000    -3.524000000
O     1.882000000     0.448000000    -4.796000000
H     1.698000000     0.477000000    -5.735000000
H     1.094000000     0.067000000    -4.409000000
O     3.517000000    -2.954000000     5.909000000
H     2.901000000    -2.928000000     6.641000000
H     3.085000000    -2.455000000     5.215000000
O    -2.463000000    -5.461000000     2.107000000
H    -2.598000000    -4.515000000     2.049000000
H    -2.809000000    -5.804000000     1.283000000
O     5.926000000     0.907000000    -1.667000000
H     5.764000000    -0.005000000    -1.907000000
H     6.197000000     0.869000000    -0.750000000
O     3.098000000     1.423000000     3.241000000
H     3.555000000     0.758000000     2.726000000
H     3.673000000     2.188000000     3.207000000
O     3.225000000    -5.605000000     2.228000000
H     4.053000000    -6.080000000     2.152000000
H     2.684000000    -6.154000000     2.794000000
O     4.688000000    -0.547000000     2.224000000
H     4.512000000    -1.456000000     1.981000000
H     5.614000000    -0.419000000     2.018000000
