144
-2827.07155
O    -1.883000000     3.943000000     4.616000000
H    -1.407000000     3.118000000     4.528000000
H    -1.582000000     4.474000000     3.879000000
O    -4.933000000     0.193000000     3.665000000
H    -4.808000000     0.809000000     2.944000000
H    -5.000000000    -0.662000000     3.240000000
O    -0.826000000     5.261000000     2.101000000
H    -0.232000000     4.861000000     1.465000000
H    -1.306000000     5.919000000     1.599000000
O    -5.590000000    -2.001000000    -3.383000000
H    -4.890000000    -1.735000000    -2.786000000
H    -5.850000000    -2.869000000    -3.074000000
O     3.887000000     4.922000000     4.060000000
H     3.665000000     4.679000000     3.161000000
H     3.583000000     5.826000000     4.146000000
O     3.668000000    -3.550000000    -0.432000000
H     3.133000000    -3.100000000    -1.086000000
H     3.033000000    -3.956000000     0.159000000
O     3.618000000     6.480000000    -0.048000000
H     4.006000000     7.321000000    -0.291000000
H     2.761000000     6.480000000    -0.474000000
O     1.146000000     6.193000000    -1.397000000
H     0.750000000     6.040000000    -2.255000000
H     0.914000000     5.419000000    -0.884000000
O    -2.614000000     5.071000000    -1.127000000
H    -1.767000000     4.983000000    -1.565000000
H    -3.228000000     4.612000000    -1.699000000
O     4.213000000    -0.217000000    -1.903000000
H     4.647000000    -1.071000000    -1.898000000
H     3.909000000    -0.108000000    -2.804000000
O     3.012000000    -0.411000000    -4.740000000
H     2.964000000    -0.742000000    -5.637000000
H     2.107000000    -0.196000000    -4.516000000
O    -2.151000000    -5.633000000    -2.570000000
H    -1.992000000    -6.335000000    -3.202000000
H    -1.620000000    -4.902000000    -2.886000000
O    -3.800000000     0.246000000     6.200000000
H    -4.357000000     0.592000000     5.502000000
H    -3.082000000    -0.188000000     5.740000000
O    -0.002000000    -6.569000000    -0.273000000
H    -0.957000000    -6.548000000    -0.344000000
H     0.304000000    -6.035000000    -1.006000000
O     2.217000000    -5.072000000     1.336000000
H     1.621000000    -5.779000000     1.090000000
H     1.756000000    -4.599000000     2.029000000
O    -1.555000000    -0.843000000     4.959000000
H    -0.631000000    -1.089000000     4.911000000
H    -2.028000000    -1.646000000     4.742000000
O    -0.868000000    -1.226000000    -5.992000000
H    -1.144000000    -0.752000000    -6.776000000
H    -0.327000000    -0.600000000    -5.511000000
O    -4.337000000     3.210000000     3.442000000
H    -5.042000000     3.625000000     3.938000000
H    -3.536000000     3.489000000     3.886000000
O    -5.288000000    -2.480000000     2.455000000
H    -5.403000000    -3.390000000     2.729000000
H    -5.870000000    -2.381000000     1.702000000
O     0.811000000     6.612000000     3.977000000
H     0.379000000     6.107000000     3.289000000
H     0.252000000     6.499000000     4.746000000
O     6.229000000     3.204000000    -3.480000000
H     5.433000000     3.662000000    -3.209000000
H     6.321000000     2.490000000    -2.849000000
O     2.125000000    -3.356000000    -3.595000000
H     3.004000000    -2.983000000    -3.661000000
H     1.848000000    -3.482000000    -4.502000000
O     2.196000000     2.153000000     3.551000000
H     2.608000000     3.003000000     3.397000000
H     2.469000000     1.616000000     2.807000000
O    -4.003000000    -3.976000000     0.016000000
H    -4.175000000    -3.682000000     0.911000000
H    -3.501000000    -4.784000000     0.122000000
O    -0.069000000     4.188000000    -3.228000000
H     0.711000000     3.783000000    -3.607000000
H    -0.567000000     4.501000000    -3.983000000
O     0.414000000     0.809000000    -4.482000000
H     0.850000000     1.529000000    -4.938000000
H    -0.095000000     1.235000000    -3.792000000
O    -2.570000000    -7.038000000     1.010000000
H    -2.329000000    -7.640000000     1.714000000
H    -2.627000000    -7.591000000     0.231000000
O     1.269000000    -0.551000000     5.092000000
H     1.445000000    -0.381000000     6.017000000
H     2.136000000    -0.604000000     4.689000000
O     2.932000000     5.243000000    -5.142000000
H     3.438000000     4.859000000    -4.426000000
H     2.882000000     6.174000000    -4.926000000
O     1.489000000     2.971000000    -5.728000000
H     1.292000000     2.929000000    -6.664000000
H     1.891000000     3.832000000    -5.607000000
O    -4.940000000    -5.408000000     2.548000000
H    -5.010000000    -5.729000000     3.447000000
H    -4.108000000    -5.760000000     2.232000000
O     0.677000000    -4.333000000     3.429000000
H     1.169000000    -3.666000000     3.907000000
H     0.729000000    -5.112000000     3.983000000
O     2.984000000     4.490000000     1.580000000
H     3.189000000     5.192000000     0.962000000
H     2.252000000     4.023000000     1.177000000
O     1.688000000    -5.667000000    -2.603000000
H     1.534000000    -4.829000000    -3.040000000
H     2.609000000    -5.636000000    -2.343000000
O     4.369000000     1.971000000    -0.192000000
H     4.351000000     1.240000000    -0.810000000
H     3.658000000     2.545000000    -0.479000000
O     1.148000000     8.761000000    -0.398000000
H     0.539000000     8.715000000     0.339000000
H     1.114000000     7.889000000    -0.792000000
O    -1.911000000    -4.719000000     2.823000000
H    -0.968000000    -4.642000000     2.968000000
H    -2.005000000    -5.490000000     2.264000000
O     5.950000000     4.729000000    -0.186000000
H     5.165000000     5.253000000    -0.025000000
H     5.791000000     3.910000000     0.284000000
O    -3.332000000    -1.437000000    -1.919000000
H    -3.665000000    -1.921000000    -1.164000000
H    -3.262000000    -0.533000000    -1.611000000
O     2.758000000    -0.713000000     1.675000000
H     1.844000000    -0.443000000     1.592000000
H     3.110000000    -0.643000000     0.788000000
O     3.913000000     4.207000000    -2.740000000
H     4.151000000     5.008000000    -2.274000000
H     3.304000000     3.759000000    -2.152000000
O    -1.368000000    -3.008000000    -3.421000000
H    -0.558000000    -2.551000000    -3.647000000
H    -1.832000000    -2.402000000    -2.842000000
O     3.549000000    -2.581000000     3.683000000
H     4.467000000    -2.317000000     3.615000000
H     3.148000000    -2.263000000     2.874000000
O     5.813000000     1.972000000     2.093000000
H     5.255000000     1.820000000     1.330000000
H     6.705000000     1.853000000     1.764000000
O    -3.340000000    -2.868000000     4.493000000
H    -3.025000000    -3.665000000     4.067000000
H    -3.817000000    -2.402000000     3.807000000
O    -0.477000000     1.780000000     4.560000000
H    -0.599000000     0.830000000     4.575000000
H     0.452000000     1.899000000     4.363000000
O    -3.123000000     2.853000000     0.467000000
H    -3.081000000     3.011000000     1.410000000
H    -2.706000000     3.621000000     0.076000000
O    -3.759000000     1.374000000    -1.641000000
H    -3.275000000     1.614000000    -2.431000000
H    -3.474000000     2.009000000    -0.984000000
