144
-2779.39858
O    -3.121000000    -6.505000000     1.545000000
H    -2.733000000    -5.947000000     2.219000000
H    -3.609000000    -5.901000000     0.986000000
O    -1.197000000    -1.642000000    -3.527000000
H    -1.378000000    -2.321000000    -2.877000000
H    -1.972000000    -1.081000000    -3.510000000
O     2.000000000    -4.379000000     3.421000000
H     2.445000000    -4.692000000     4.209000000
H     2.586000000    -3.711000000     3.065000000
O    -0.144000000    -7.817000000     2.841000000
H     0.140000000    -7.023000000     2.388000000
H    -0.067000000    -7.603000000     3.770000000
O    -0.244000000    -1.610000000     6.112000000
H     0.589000000    -1.378000000     5.701000000
H    -0.831000000    -1.789000000     5.377000000
O     3.144000000     7.725000000     1.089000000
H     4.063000000     7.700000000     0.825000000
H     2.789000000     6.882000000     0.805000000
O    -2.161000000     2.856000000     1.239000000
H    -1.642000000     2.194000000     0.782000000
H    -2.800000000     2.354000000     1.744000000
O    -3.789000000     1.135000000     2.911000000
H    -3.351000000     1.673000000     3.570000000
H    -3.289000000     0.318000000     2.898000000
O    -4.548000000    -4.459000000     0.370000000
H    -5.395000000    -4.016000000     0.429000000
H    -3.908000000    -3.749000000     0.336000000
O     2.329000000     3.965000000    -4.878000000
H     1.690000000     4.268000000    -5.522000000
H     2.746000000     3.208000000    -5.291000000
O    -0.135000000     5.507000000    -0.393000000
H     0.059000000     6.443000000    -0.346000000
H    -1.088000000     5.464000000    -0.471000000
O    -4.015000000     2.084000000    -1.077000000
H    -3.493000000     2.467000000    -0.372000000
H    -4.320000000     1.249000000    -0.723000000
O     3.518000000     5.341000000    -2.792000000
H     3.269000000     4.605000000    -3.352000000
H     4.456000000     5.454000000    -2.950000000
O     0.830000000    -7.159000000    -0.357000000
H    -0.070000000    -7.473000000    -0.447000000
H     0.755000000    -6.370000000     0.180000000
O     4.223000000     5.316000000     3.243000000
H     3.729000000     5.012000000     4.004000000
H     4.290000000     4.547000000     2.678000000
O    -2.615000000    -4.724000000     3.503000000
H    -2.792000000    -4.033000000     4.142000000
H    -2.403000000    -4.255000000     2.696000000
O     2.556000000    -3.391000000    -0.571000000
H     2.130000000    -2.863000000     0.105000000
H     2.651000000    -2.796000000    -1.315000000
O    -4.406000000     4.392000000    -2.801000000
H    -5.033000000     3.974000000    -3.391000000
H    -4.365000000     3.809000000    -2.043000000
O     6.937000000     0.344000000    -3.780000000
H     6.973000000    -0.610000000    -3.850000000
H     6.002000000     0.550000000    -3.798000000
O     1.917000000    -1.169000000     4.284000000
H     2.477000000    -0.406000000     4.427000000
H     2.452000000    -1.763000000     3.758000000
O     1.722000000     3.012000000     4.085000000
H     1.753000000     3.771000000     4.667000000
H     1.358000000     3.352000000     3.268000000
O    -3.489000000     1.486000000    -4.062000000
H    -3.389000000     1.564000000    -3.114000000
H    -4.298000000     1.960000000    -4.257000000
O    -7.065000000    -1.928000000     1.460000000
H    -7.685000000    -2.595000000     1.165000000
H    -7.617000000    -1.223000000     1.800000000
O     0.125000000     3.914000000     2.193000000
H     0.477000000     4.533000000     1.553000000
H    -0.700000000     3.617000000     1.810000000
O    -5.115000000    -2.243000000    -1.558000000
H    -5.807000000    -1.586000000    -1.485000000
H    -4.431000000    -1.938000000    -0.963000000
O    -3.521000000    -7.140000000     4.636000000
H    -4.160000000    -6.634000000     5.138000000
H    -3.040000000    -6.484000000     4.131000000
O     4.977000000     3.494000000     1.421000000
H     4.602000000     3.887000000     0.633000000
H     4.969000000     2.553000000     1.246000000
O     4.102000000    -2.660000000     3.006000000
H     4.675000000    -1.917000000     3.196000000
H     4.686000000    -3.327000000     2.645000000
O    -1.728000000    -3.830000000    -2.149000000
H    -1.109000000    -4.123000000    -1.480000000
H    -2.083000000    -4.639000000    -2.518000000
O    -5.085000000    -5.303000000    -2.446000000
H    -5.601000000    -4.760000000    -3.041000000
H    -4.810000000    -4.705000000    -1.752000000
O    -4.119000000    -1.950000000    -4.067000000
H    -4.615000000    -2.297000000    -3.325000000
H    -4.108000000    -2.666000000    -4.703000000
O     2.832000000     5.319000000     0.159000000
H     3.261000000     5.169000000    -0.683000000
H     1.899000000     5.349000000    -0.050000000
O    -1.805000000    -1.472000000     3.947000000
H    -0.919000000    -1.137000000     3.814000000
H    -1.949000000    -2.067000000     3.210000000
O    -0.307000000     4.094000000    -3.010000000
H     0.645000000     4.013000000    -2.942000000
H    -0.644000000     3.580000000    -2.277000000
O    -1.937000000    -7.552000000    -0.691000000
H    -1.870000000    -8.389000000    -0.231000000
H    -2.440000000    -6.994000000    -0.098000000
O    -2.086000000     1.222000000    -6.456000000
H    -2.759000000     1.492000000    -7.080000000
H    -2.463000000     1.415000000    -5.598000000
O     3.680000000     0.677000000    -3.827000000
H     3.498000000     0.975000000    -4.719000000
H     4.180000000     1.392000000    -3.433000000
O     5.811000000     0.967000000    -0.326000000
H     5.466000000     0.077000000    -0.263000000
H     6.728000000     0.888000000    -0.062000000
O    -5.772000000    -4.577000000     4.324000000
H    -5.178000000    -3.971000000     3.882000000
H    -6.379000000    -4.860000000     3.640000000
O     0.128000000    -5.247000000     1.632000000
H     0.879000000    -5.076000000     2.201000000
H    -0.449000000    -4.496000000     1.764000000
O     2.902000000    -1.972000000    -3.096000000
H     2.144000000    -2.120000000    -3.660000000
H     2.957000000    -1.020000000    -3.013000000
O    -5.006000000     0.054000000     0.169000000
H    -5.925000000    -0.163000000     0.327000000
H    -4.517000000    -0.582000000     0.691000000
O     5.310000000     2.379000000    -2.600000000
H     5.483000000     2.032000000    -1.725000000
H     5.974000000     3.056000000    -2.725000000
O     2.204000000     1.085000000     5.863000000
H     1.785000000     1.253000000     6.707000000
H     1.991000000     1.853000000     5.332000000
O     5.822000000    -2.209000000    -3.170000000
H     4.918000000    -1.895000000    -3.134000000
H     6.193000000    -1.967000000    -2.321000000
O    -4.834000000    -2.355000000     2.797000000
H    -5.624000000    -2.191000000     2.281000000
H    -4.114000000    -2.120000000     2.212000000
O     5.549000000    -0.496000000     3.905000000
H     5.135000000     0.242000000     4.352000000
H     6.298000000    -0.720000000     4.457000000
O    -2.284000000     5.761000000    -3.620000000
H    -1.580000000     5.114000000    -3.662000000
H    -3.077000000     5.242000000    -3.482000000
