144
-2813.05316
O    -1.767000000    -4.175000000    -2.206000000
H    -1.431000000    -3.570000000    -2.866000000
H    -2.625000000    -4.439000000    -2.537000000
O    -5.074000000    -1.681000000     2.619000000
H    -4.476000000    -2.343000000     2.270000000
H    -5.928000000    -2.111000000     2.628000000
O     0.287000000    -5.494000000    -3.842000000
H    -0.187000000    -5.572000000    -4.670000000
H    -0.368000000    -5.180000000    -3.219000000
O     0.374000000     5.097000000     1.794000000
H    -0.044000000     4.608000000     1.085000000
H     0.108000000     4.638000000     2.590000000
O    -2.832000000    -5.216000000     0.102000000
H    -2.518000000    -4.633000000    -0.588000000
H    -2.257000000    -5.979000000     0.051000000
O     4.040000000     0.049000000    -2.460000000
H     3.944000000    -0.548000000    -3.203000000
H     4.329000000    -0.511000000    -1.739000000
O    -1.003000000     6.161000000    -1.507000000
H    -1.794000000     6.113000000    -2.044000000
H    -0.743000000     5.248000000    -1.382000000
O    -1.775000000    -6.045000000     2.978000000
H    -1.696000000    -6.037000000     2.024000000
H    -2.642000000    -6.415000000     3.144000000
O    -2.853000000     0.017000000    -1.285000000
H    -3.613000000     0.517000000    -0.990000000
H    -2.142000000     0.300000000    -0.710000000
O    -2.948000000     4.680000000     0.284000000
H    -3.350000000     4.084000000    -0.348000000
H    -2.008000000     4.517000000     0.203000000
O     4.465000000    -1.151000000     2.436000000
H     4.438000000    -1.462000000     1.532000000
H     4.458000000    -0.196000000     2.361000000
O     3.417000000     4.341000000     2.166000000
H     2.756000000     4.193000000     1.490000000
H     3.618000000     5.274000000     2.104000000
O     3.708000000    -1.815000000    -4.539000000
H     3.350000000    -2.696000000    -4.434000000
H     3.515000000    -1.584000000    -5.448000000
O    -1.337000000    -2.302000000    -4.606000000
H    -0.931000000    -1.896000000    -5.371000000
H    -1.691000000    -3.129000000    -4.932000000
O    -0.123000000     4.287000000    -5.739000000
H     0.069000000     3.927000000    -6.605000000
H     0.520000000     3.876000000    -5.162000000
O    -2.417000000     6.138000000     4.126000000
H    -2.800000000     5.655000000     4.858000000
H    -1.622000000     5.651000000     3.907000000
O     3.394000000    -4.661000000     1.584000000
H     2.950000000    -5.009000000     0.811000000
H     2.686000000    -4.450000000     2.192000000
O    -3.894000000     7.061000000     1.402000000
H    -3.260000000     6.897000000     2.100000000
H    -3.858000000     6.276000000     0.856000000
O     1.745000000    -4.513000000     3.840000000
H     0.798000000    -4.567000000     3.969000000
H     1.916000000    -3.580000000     3.712000000
O     0.306000000    -7.136000000     4.368000000
H     1.138000000    -7.007000000     3.914000000
H    -0.330000000    -6.645000000     3.847000000
O     0.981000000     1.375000000     4.569000000
H     1.110000000     1.592000000     3.645000000
H     0.666000000     0.472000000     4.561000000
O    -0.862000000     8.484000000    -0.246000000
H    -0.809000000     8.299000000     0.692000000
H    -0.814000000     7.623000000    -0.662000000
O    -0.543000000     3.786000000     3.915000000
H    -0.288000000     3.003000000     4.402000000
H    -1.319000000     3.520000000     3.422000000
O     1.850000000     3.204000000    -4.275000000
H     2.625000000     3.692000000    -3.996000000
H     1.277000000     3.205000000    -3.509000000
O    -0.241000000    -1.249000000     4.518000000
H     0.458000000    -1.358000000     3.873000000
H    -0.244000000    -2.071000000     5.009000000
O     2.849000000    -4.730000000    -4.465000000
H     1.940000000    -4.814000000    -4.178000000
H     2.950000000    -5.402000000    -5.139000000
O    -3.578000000     2.620000000    -1.793000000
H    -2.765000000     2.296000000    -2.181000000
H    -4.036000000     3.046000000    -2.517000000
O    -1.478000000    -7.466000000     0.696000000
H    -1.715000000    -8.346000000     0.988000000
H    -0.680000000    -7.591000000     0.182000000
O    -2.239000000     0.169000000    -3.866000000
H    -1.747000000    -0.597000000    -4.162000000
H    -2.261000000     0.085000000    -2.913000000
O     6.328000000     1.249000000    -3.128000000
H     6.704000000     0.369000000    -3.113000000
H     5.419000000     1.125000000    -2.853000000
O     2.349000000    -1.869000000     3.848000000
H     3.020000000    -1.612000000     3.216000000
H     2.731000000    -1.662000000     4.701000000
O    -3.884000000    -2.432000000    -0.101000000
H    -3.808000000    -1.712000000    -0.727000000
H    -3.008000000    -2.817000000    -0.072000000
O     4.918000000     1.528000000     1.241000000
H     5.801000000     1.306000000     0.945000000
H     4.424000000     1.670000000     0.434000000
O     2.012000000    -5.244000000    -1.117000000
H     2.134000000    -4.552000000    -1.768000000
H     1.778000000    -6.017000000    -1.631000000
O     1.696000000     5.710000000    -1.857000000
H     0.912000000     6.249000000    -1.752000000
H     1.370000000     4.810000000    -1.850000000
O     4.069000000     4.322000000    -2.347000000
H     4.009000000     3.611000000    -1.710000000
H     3.415000000     4.959000000    -2.058000000
O     3.428000000     2.973000000    -6.747000000
H     4.283000000     3.086000000    -6.332000000
H     2.820000000     2.859000000    -6.016000000
O     2.024000000     1.996000000     2.293000000
H     2.444000000     1.232000000     1.898000000
H     2.729000000     2.637000000     2.385000000
O     4.892000000    -1.736000000    -0.420000000
H     5.814000000    -1.972000000    -0.520000000
H     4.423000000    -2.568000000    -0.480000000
O     3.369000000     8.043000000    -1.631000000
H     4.197000000     7.852000000    -1.190000000
H     2.947000000     7.190000000    -1.729000000
O    -0.758000000    -4.392000000     4.704000000
H    -1.332000000    -4.576000000     5.447000000
H    -1.138000000    -4.889000000     3.979000000
O    -3.182000000     6.535000000    -2.994000000
H    -3.110000000     6.066000000    -3.826000000
H    -2.903000000     7.428000000    -3.198000000
O    -5.349000000     0.098000000     0.419000000
H    -5.296000000    -0.473000000     1.185000000
H    -5.704000000    -0.460000000    -0.272000000
O    -4.325000000     0.845000000     3.679000000
H    -4.501000000     1.592000000     3.108000000
H    -4.573000000     0.081000000     3.158000000
O     3.455000000     2.168000000    -0.928000000
H     3.613000000     1.303000000    -1.307000000
H     2.583000000     2.410000000    -1.240000000
O    -4.753000000    -4.772000000     2.016000000
H    -4.271000000    -5.094000000     2.778000000
H    -4.100000000    -4.733000000     1.318000000
O    -2.211000000     0.381000000     5.301000000
H    -2.908000000     0.430000000     4.647000000
H    -1.572000000    -0.224000000     4.925000000
O    -3.170000000     3.324000000     2.580000000
H    -4.107000000     3.406000000     2.757000000
H    -3.047000000     3.756000000     1.735000000
