144
-2787.85985
O    -3.427000000    -5.531000000     1.589000000
H    -3.973000000    -5.360000000     0.822000000
H    -2.806000000    -4.802000000     1.608000000
O     0.032000000    -1.372000000    -3.145000000
H    -0.412000000    -0.836000000    -2.487000000
H    -0.500000000    -1.272000000    -3.934000000
O     2.436000000    -3.490000000     3.340000000
H     3.170000000    -2.904000000     3.155000000
H     2.108000000    -3.743000000     2.477000000
O    -1.507000000    -7.444000000     2.583000000
H    -1.841000000    -6.610000000     2.254000000
H    -0.846000000    -7.199000000     3.231000000
O    -2.202000000     4.031000000     0.122000000
H    -1.440000000     4.240000000    -0.418000000
H    -2.226000000     4.723000000     0.782000000
O     0.118000000     6.965000000    -2.251000000
H     0.394000000     7.240000000    -1.377000000
H    -0.467000000     7.663000000    -2.548000000
O    -1.372000000    -5.958000000    -2.544000000
H    -2.323000000    -5.860000000    -2.583000000
H    -1.061000000    -5.132000000    -2.174000000
O    -5.331000000    -3.704000000     0.289000000
H    -5.880000000    -3.076000000    -0.181000000
H    -4.467000000    -3.292000000     0.317000000
O     0.174000000     1.615000000     4.434000000
H     0.993000000     2.100000000     4.334000000
H    -0.510000000     2.260000000     4.251000000
O     4.391000000     0.573000000    -5.104000000
H     3.985000000     1.090000000    -5.800000000
H     4.883000000    -0.106000000    -5.566000000
O     0.101000000     4.448000000    -1.556000000
H    -0.057000000     5.322000000    -1.913000000
H     0.479000000     3.957000000    -2.286000000
O    -3.846000000     1.792000000    -0.974000000
H    -3.257000000     2.406000000    -0.535000000
H    -4.131000000     1.197000000    -0.281000000
O     4.497000000     2.944000000    -3.405000000
H     4.557000000     2.255000000    -4.067000000
H     4.923000000     2.573000000    -2.633000000
O    -3.809000000    -5.374000000     4.413000000
H    -3.161000000    -4.670000000     4.398000000
H    -3.867000000    -5.665000000     3.503000000
O    -5.440000000     3.795000000    -2.514000000
H    -5.844000000     3.323000000    -3.242000000
H    -4.688000000     3.256000000    -2.267000000
O    -0.295000000     2.613000000    -6.495000000
H     0.119000000     3.088000000    -5.775000000
H     0.416000000     2.450000000    -7.115000000
O     2.310000000    -1.211000000     6.229000000
H     2.478000000    -1.290000000     7.168000000
H     3.009000000    -1.719000000     5.817000000
O     1.790000000     3.647000000     3.781000000
H     1.782000000     4.557000000     4.077000000
H     1.651000000     3.702000000     2.835000000
O     5.111000000    -2.118000000     2.924000000
H     5.411000000    -1.880000000     3.801000000
H     4.611000000    -1.358000000     2.627000000
O    -3.592000000     1.580000000    -3.710000000
H    -4.456000000     1.184000000    -3.819000000
H    -3.525000000     1.755000000    -2.771000000
O    -6.459000000    -0.296000000    -1.036000000
H    -7.124000000    -0.703000000    -0.480000000
H    -6.924000000     0.409000000    -1.488000000
O     1.364000000     4.460000000     1.081000000
H     1.232000000     4.099000000     0.205000000
H     0.509000000     4.816000000     1.325000000
O    -3.036000000    -2.502000000    -2.637000000
H    -3.972000000    -2.304000000    -2.674000000
H    -2.857000000    -2.633000000    -1.706000000
O     0.850000000    -0.890000000    -6.407000000
H     0.483000000    -0.329000000    -5.723000000
H     1.547000000    -1.378000000    -5.968000000
O     4.897000000     3.665000000     3.627000000
H     4.751000000     3.617000000     2.682000000
H     4.018000000     3.690000000     4.005000000
O    -6.381000000    -2.787000000    -2.389000000
H    -7.187000000    -3.237000000    -2.644000000
H    -6.656000000    -1.887000000    -2.212000000
O    -0.494000000    -3.714000000    -1.439000000
H     0.054000000    -2.930000000    -1.416000000
H    -0.155000000    -4.264000000    -0.733000000
O    -4.832000000    -5.845000000    -1.796000000
H    -5.042000000    -5.746000000    -2.725000000
H    -4.925000000    -4.963000000    -1.434000000
O    -1.618000000    -3.666000000    -4.512000000
H    -2.276000000    -3.297000000    -3.923000000
H    -0.794000000    -3.584000000    -4.031000000
O     4.360000000     3.968000000     1.019000000
H     4.580000000     3.650000000     0.143000000
H     3.409000000     4.081000000     1.001000000
O    -2.558000000    -2.809000000     4.454000000
H    -2.722000000    -1.914000000     4.753000000
H    -1.771000000    -2.739000000     3.912000000
O    -7.175000000    -5.789000000     0.980000000
H    -6.305000000    -5.401000000     0.886000000
H    -7.754000000    -5.044000000     1.140000000
O     1.685000000     4.054000000    -5.167000000
H     1.654000000     4.944000000    -5.518000000
H     2.449000000     4.051000000    -4.590000000
O     0.816000000    -5.582000000     0.279000000
H     1.006000000    -6.043000000    -0.539000000
H     1.180000000    -6.146000000     0.961000000
O    -1.206000000     0.677000000    -4.681000000
H    -0.715000000     1.405000000    -5.061000000
H    -2.077000000     1.037000000    -4.515000000
O     4.499000000    -0.183000000    -2.480000000
H     4.393000000     0.155000000    -3.370000000
H     4.592000000     0.599000000    -1.936000000
O     5.963000000     1.342000000     1.469000000
H     6.646000000     1.813000000     1.946000000
H     5.425000000     0.943000000     2.153000000
O    -4.674000000     1.543000000     3.545000000
H    -4.536000000     1.012000000     2.761000000
H    -5.371000000     2.152000000     3.302000000
O    -0.520000000    -4.626000000     2.792000000
H    -0.210000000    -5.184000000     2.079000000
H    -1.121000000    -4.011000000     2.372000000
O     0.174000000    -3.002000000     6.118000000
H     0.273000000    -3.562000000     5.347000000
H     0.865000000    -2.346000000     6.027000000
O     1.082000000     7.955000000     0.106000000
H     1.903000000     7.466000000     0.062000000
H     0.771000000     7.823000000     1.001000000
O     2.590000000    -2.313000000    -2.699000000
H     1.751000000    -1.871000000    -2.831000000
H     3.175000000    -1.626000000    -2.381000000
O    -4.464000000    -0.039000000     1.088000000
H    -5.261000000    -0.138000000     0.567000000
H    -3.927000000    -0.795000000     0.850000000
O     5.662000000     2.342000000    -0.864000000
H     5.613000000     2.141000000     0.071000000
H     6.495000000     2.803000000    -0.966000000
O     6.085000000    -2.402000000    -2.177000000
H     5.433000000    -1.727000000    -2.364000000
H     6.910000000    -2.033000000    -2.493000000
O     3.430000000     5.550000000    -2.693000000
H     3.419000000     5.503000000    -1.737000000
H     3.809000000     4.716000000    -2.969000000
O    -6.500000000    -2.132000000     3.004000000
H    -7.377000000    -1.888000000     2.707000000
H    -5.953000000    -2.055000000     2.223000000
O     3.867000000     0.384000000     3.434000000
H     4.119000000     0.430000000     4.357000000
H     2.956000000     0.678000000     3.420000000
