144
-2792.84217
O     3.439000000     6.488000000     4.429000000
H     3.070000000     6.088000000     3.641000000
H     2.707000000     6.521000000     5.045000000
O     1.632000000     1.131000000     3.345000000
H     1.877000000     0.503000000     2.665000000
H     2.395000000     1.703000000     3.427000000
O    -2.413000000    -0.208000000    -2.634000000
H    -2.168000000     0.005000000    -1.733000000
H    -3.092000000    -0.877000000    -2.545000000
O     0.234000000     5.641000000    -1.015000000
H     0.495000000     5.225000000    -0.193000000
H    -0.633000000     5.281000000    -1.200000000
O    -0.210000000     4.710000000    -3.651000000
H     0.459000000     4.074000000    -3.398000000
H    -0.514000000     5.080000000    -2.823000000
O    -5.659000000    -3.700000000     4.400000000
H    -5.445000000    -3.903000000     5.310000000
H    -4.836000000    -3.820000000     3.927000000
O     5.920000000     5.384000000     1.541000000
H     6.776000000     5.333000000     1.966000000
H     5.908000000     4.644000000     0.935000000
O     4.961000000    -3.490000000    -1.618000000
H     5.750000000    -3.936000000    -1.927000000
H     4.295000000    -3.703000000    -2.271000000
O     1.616000000     2.688000000    -2.818000000
H     2.347000000     2.537000000    -3.416000000
H     2.028000000     2.806000000    -1.962000000
O    -4.351000000     4.408000000     1.387000000
H    -4.114000000     3.640000000     0.869000000
H    -3.933000000     5.141000000     0.935000000
O     2.623000000    -4.178000000    -2.900000000
H     1.742000000    -4.553000000    -2.902000000
H     2.987000000    -4.417000000    -3.752000000
O    -0.096000000     5.903000000     4.100000000
H     0.132000000     5.002000000     4.330000000
H    -0.506000000     5.834000000     3.238000000
O     0.392000000    -0.230000000     5.677000000
H     0.627000000     0.564000000     5.196000000
H     0.392000000    -0.920000000     5.014000000
O     2.454000000    -5.430000000    -0.383000000
H     1.739000000    -6.065000000    -0.401000000
H     2.326000000    -4.901000000    -1.170000000
O    -4.666000000     2.470000000    -0.897000000
H    -5.066000000     1.648000000    -0.611000000
H    -4.635000000     2.401000000    -1.851000000
O    -0.452000000     2.979000000     3.968000000
H     0.229000000     2.328000000     3.802000000
H    -0.713000000     3.280000000     3.098000000
O     3.754000000     2.830000000     3.807000000
H     3.615000000     2.796000000     4.753000000
H     3.297000000     3.622000000     3.525000000
O     0.032000000    -4.976000000    -3.121000000
H     0.030000000    -5.321000000    -4.014000000
H    -0.811000000    -5.248000000    -2.758000000
O     0.193000000    -2.913000000     4.932000000
H    -0.427000000    -3.271000000     5.568000000
H    -0.028000000    -3.352000000     4.110000000
O    -3.836000000    -4.604000000     0.101000000
H    -3.407000000    -4.005000000    -0.510000000
H    -4.562000000    -4.977000000    -0.398000000
O    -3.135000000     0.139000000     5.172000000
H    -2.544000000     0.855000000     5.405000000
H    -2.853000000    -0.593000000     5.721000000
O     2.339000000     5.176000000     2.293000000
H     2.842000000     5.335000000     1.495000000
H     1.766000000     4.441000000     2.074000000
O     6.412000000     2.622000000    -0.250000000
H     6.027000000     2.066000000    -0.928000000
H     7.343000000     2.656000000    -0.469000000
O    -2.777000000    -5.835000000    -2.802000000
H    -3.054000000    -6.732000000    -2.984000000
H    -3.505000000    -5.453000000    -2.312000000
O     0.046000000     0.432000000    -3.823000000
H    -0.692000000     0.084000000    -3.322000000
H     0.532000000     0.965000000    -3.194000000
O    -0.336000000    -1.348000000    -6.049000000
H     0.023000000    -0.675000000    -5.472000000
H    -1.127000000    -1.650000000    -5.602000000
O     5.515000000     6.503000000    -1.796000000
H     5.031000000     7.326000000    -1.871000000
H     5.087000000     6.038000000    -1.077000000
O     0.121000000    -7.609000000    -0.545000000
H     0.286000000    -8.547000000    -0.452000000
H    -0.738000000    -7.476000000    -0.145000000
O     3.551000000    -3.617000000     1.414000000
H     3.188000000    -4.305000000     0.856000000
H     3.965000000    -3.006000000     0.804000000
O     5.774000000    -1.124000000    -0.718000000
H     4.908000000    -0.791000000    -0.483000000
H     5.645000000    -2.066000000    -0.835000000
O    -1.550000000     2.611000000     6.381000000
H    -1.882000000     3.422000000     6.766000000
H    -1.027000000     2.898000000     5.632000000
O     4.367000000     4.199000000    -3.330000000
H     3.679000000     4.536000000    -3.903000000
H     5.135000000     4.730000000    -3.540000000
O    -4.715000000    -1.282000000     2.639000000
H    -5.411000000    -1.800000000     3.043000000
H    -4.182000000    -0.982000000     3.375000000
O     3.416000000     5.228000000    -0.348000000
H     3.265000000     5.512000000    -1.249000000
H     3.086000000     4.330000000    -0.321000000
O    -5.750000000     0.183000000     0.479000000
H    -5.269000000    -0.390000000     1.075000000
H    -6.405000000    -0.386000000     0.076000000
O     4.059000000    -1.133000000    -3.487000000
H     3.353000000    -1.341000000    -2.875000000
H     4.211000000    -0.195000000    -3.367000000
O    -0.315000000    -5.077000000     2.844000000
H     0.172000000    -5.022000000     2.022000000
H    -0.044000000    -5.911000000     3.227000000
O     1.312000000     7.967000000    -1.621000000
H     1.107000000     7.032000000    -1.638000000
H     0.611000000     8.376000000    -2.128000000
O    -2.674000000    -2.773000000    -5.190000000
H    -2.551000000    -3.663000000    -5.519000000
H    -3.287000000    -2.869000000    -4.461000000
O     6.057000000     1.531000000     3.084000000
H     5.259000000     1.980000000     3.364000000
H     6.696000000     2.233000000     2.962000000
O    -2.151000000     4.291000000    -1.454000000
H    -2.602000000     3.565000000    -1.022000000
H    -2.815000000     4.977000000    -1.525000000
O     4.571000000     1.571000000    -2.223000000
H     4.770000000     2.296000000    -2.815000000
H     4.025000000     1.962000000    -1.541000000
O    -4.365000000    -2.370000000    -2.819000000
H    -5.116000000    -1.892000000    -2.467000000
H    -4.737000000    -3.181000000    -3.165000000
O     1.773000000     8.517000000     1.014000000
H     1.549000000     8.103000000     0.181000000
H     2.425000000     7.934000000     1.403000000
O    -3.426000000    -4.857000000     2.750000000
H    -2.477000000    -4.882000000     2.872000000
H    -3.543000000    -4.647000000     1.823000000
O    -5.161000000     1.834000000     4.123000000
H    -5.147000000     2.470000000     4.839000000
H    -4.303000000     1.411000000     4.161000000
O     3.911000000     0.755000000     1.239000000
H     3.794000000     1.504000000     0.655000000
H     4.771000000     0.892000000     1.635000000
O    -1.071000000     4.623000000     1.868000000
H    -1.749000000     4.800000000     1.216000000
H    -0.333000000     4.284000000     1.360000000
