144
-2800.40845
O     1.375000000    -0.280000000     2.844000000
H     1.760000000    -1.078000000     2.483000000
H     0.494000000    -0.248000000     2.470000000
O    -1.165000000     1.984000000    -2.760000000
H    -1.973000000     2.414000000    -3.040000000
H    -1.312000000     1.776000000    -1.837000000
O    -5.869000000     4.329000000    -1.326000000
H    -5.448000000     5.189000000    -1.344000000
H    -5.300000000     3.773000000    -1.858000000
O    -3.900000000     3.292000000    -2.832000000
H    -4.242000000     4.012000000    -3.363000000
H    -3.337000000     3.717000000    -2.185000000
O     5.133000000     6.112000000     1.614000000
H     5.524000000     5.808000000     2.434000000
H     4.194000000     5.973000000     1.731000000
O     4.528000000    -0.918000000     0.796000000
H     5.009000000    -1.634000000     1.210000000
H     4.375000000    -0.292000000     1.504000000
O     6.758000000     3.167000000     0.777000000
H     7.149000000     3.679000000     0.069000000
H     5.855000000     3.019000000     0.496000000
O     3.743000000     4.588000000    -2.784000000
H     3.022000000     4.037000000    -2.481000000
H     3.836000000     4.373000000    -3.712000000
O     0.854000000    -3.552000000     4.440000000
H     1.201000000    -3.287000000     3.588000000
H     1.629000000    -3.661000000     4.991000000
O     2.154000000    -5.282000000    -0.818000000
H     1.828000000    -5.544000000    -1.679000000
H     2.578000000    -4.438000000    -0.969000000
O    -0.323000000    -5.742000000     1.362000000
H    -0.013000000    -6.598000000     1.065000000
H    -1.060000000    -5.540000000     0.785000000
O    -5.990000000     1.118000000     0.484000000
H    -5.496000000     1.500000000     1.209000000
H    -5.724000000     0.198000000     0.471000000
O     0.746000000     2.524000000     5.712000000
H     0.502000000     3.262000000     6.269000000
H     0.171000000     2.598000000     4.950000000
O    -0.031000000    -5.911000000    -3.199000000
H    -0.600000000    -5.181000000    -3.443000000
H    -0.542000000    -6.410000000    -2.561000000
O    -4.920000000    -1.445000000    -0.457000000
H    -4.322000000    -2.007000000    -0.948000000
H    -5.655000000    -2.015000000    -0.232000000
O     1.319000000     8.610000000     2.477000000
H     1.797000000     9.042000000     1.770000000
H     0.674000000     8.062000000     2.030000000
O     1.147000000    -2.364000000    -4.666000000
H     1.277000000    -2.714000000    -5.547000000
H     0.225000000    -2.105000000    -4.645000000
O    -4.522000000    -4.568000000    -0.340000000
H    -5.164000000    -5.195000000    -0.673000000
H    -4.774000000    -4.429000000     0.573000000
O    -3.607000000    -1.636000000     4.266000000
H    -2.963000000    -1.040000000     3.885000000
H    -3.095000000    -2.205000000     4.841000000
O    -1.228000000     2.193000000     3.051000000
H    -2.086000000     2.441000000     3.395000000
H    -1.037000000     2.854000000     2.385000000
O     6.311000000     4.455000000    -2.093000000
H     6.258000000     5.195000000    -1.487000000
H     5.401000000     4.189000000    -2.226000000
O    -2.155000000    -6.356000000    -1.262000000
H    -2.709000000    -5.680000000    -0.873000000
H    -2.767000000    -7.040000000    -1.535000000
O     1.030000000     3.819000000    -2.428000000
H     1.121000000     3.984000000    -1.490000000
H     0.650000000     2.942000000    -2.481000000
O    -3.050000000    -1.601000000    -3.550000000
H    -3.749000000    -2.253000000    -3.589000000
H    -3.413000000    -0.892000000    -3.019000000
O    -3.162000000     7.034000000     1.983000000
H    -3.085000000     7.783000000     2.575000000
H    -2.845000000     6.290000000     2.495000000
O    -0.883000000    -5.546000000     3.946000000
H    -0.661000000    -5.776000000     3.044000000
H    -0.165000000    -4.983000000     4.234000000
O     4.355000000     0.508000000    -1.629000000
H     4.516000000     1.394000000    -1.304000000
H     4.146000000    -0.001000000    -0.846000000
O    -1.786000000    -0.400000000     2.796000000
H    -1.834000000    -0.642000000     1.871000000
H    -1.608000000     0.541000000     2.789000000
O     3.486000000     7.710000000    -1.718000000
H     3.531000000     6.817000000    -1.377000000
H     3.302000000     7.601000000    -2.651000000
O     3.323000000    -6.974000000     1.143000000
H     2.811000000    -6.473000000     0.508000000
H     3.607000000    -6.325000000     1.787000000
O     6.370000000    -0.581000000    -3.040000000
H     5.810000000    -1.309000000    -3.309000000
H     5.829000000    -0.072000000    -2.437000000
O    -4.773000000     2.000000000     2.625000000
H    -5.172000000     1.439000000     3.290000000
H    -4.385000000     2.721000000     3.122000000
O     2.495000000     5.679000000     1.439000000
H     1.882000000     6.299000000     1.834000000
H     1.939000000     4.994000000     1.069000000
O    -4.621000000    -3.814000000     2.080000000
H    -3.839000000    -3.854000000     2.630000000
H    -5.025000000    -2.974000000     2.299000000
O     2.700000000     0.098000000    -4.023000000
H     3.237000000    -0.021000000    -3.239000000
H     1.993000000    -0.540000000    -3.928000000
O    -2.236000000    -3.301000000     5.719000000
H    -1.480000000    -3.533000000     5.179000000
H    -1.907000000    -3.331000000     6.617000000
O    -0.279000000     6.256000000     1.233000000
H    -0.232000000     5.436000000     0.742000000
H    -0.904000000     6.078000000     1.936000000
O    -1.958000000    -4.683000000    -4.623000000
H    -2.108000000    -4.397000000    -5.524000000
H    -2.309000000    -3.973000000    -4.085000000
O     3.275000000    -3.033000000    -2.321000000
H     4.006000000    -3.442000000    -2.785000000
H     2.589000000    -2.950000000    -2.983000000
O     3.713000000     1.073000000     2.606000000
H     3.893000000     1.113000000     3.546000000
H     2.854000000     0.655000000     2.545000000
O    -3.873000000     0.587000000    -2.441000000
H    -4.037000000     1.525000000    -2.540000000
H    -4.389000000     0.333000000    -1.676000000
O    -4.607000000    -3.696000000    -3.325000000
H    -4.993000000    -4.119000000    -4.092000000
H    -4.425000000    -4.416000000    -2.721000000
O     4.143000000     2.666000000    -0.120000000
H     3.328000000     3.165000000    -0.158000000
H     4.140000000     2.269000000     0.751000000
O     2.647000000    -2.725000000     2.443000000
H     2.972000000    -3.539000000     2.827000000
H     3.177000000    -2.603000000     1.655000000
O    -2.432000000     4.433000000    -0.967000000
H    -2.385000000     5.388000000    -0.925000000
H    -1.874000000     4.134000000    -0.249000000
O    -0.943000000    -0.207000000    -4.491000000
H    -0.826000000     0.499000000    -3.856000000
H    -1.671000000    -0.723000000    -4.145000000
O    -0.861000000     7.683000000    -1.178000000
H    -1.689000000     8.154000000    -1.087000000
H    -0.747000000     7.235000000    -0.340000000
O    -1.480000000     5.951000000     3.980000000
H    -1.560000000     5.070000000     4.346000000
H    -1.555000000     6.532000000     4.737000000
