144
-2818.15476
O     3.647000000    -3.187000000     0.995000000
H     4.584000000    -3.105000000     1.173000000
H     3.247000000    -3.289000000     1.859000000
O     0.015000000     3.238000000    -4.583000000
H    -0.189000000     4.172000000    -4.630000000
H     0.166000000     3.072000000    -3.652000000
O     0.591000000    -1.994000000    -2.746000000
H    -0.144000000    -1.794000000    -3.325000000
H     0.322000000    -1.657000000    -1.891000000
O    -4.265000000     1.537000000     0.198000000
H    -4.985000000     2.163000000     0.121000000
H    -3.624000000     1.831000000    -0.449000000
O     6.162000000     3.150000000    -1.321000000
H     5.890000000     4.056000000    -1.465000000
H     5.358000000     2.695000000    -1.069000000
O    -0.176000000     5.804000000    -4.244000000
H     0.184000000     6.500000000    -3.695000000
H    -0.919000000     5.464000000    -3.745000000
O    -5.006000000    -1.122000000    -0.413000000
H    -5.789000000    -0.907000000     0.094000000
H    -4.575000000    -0.279000000    -0.555000000
O    -1.981000000     6.717000000     0.863000000
H    -1.467000000     6.310000000     1.561000000
H    -1.731000000     7.640000000     0.890000000
O    -2.854000000    -0.819000000     5.081000000
H    -2.056000000    -0.378000000     4.790000000
H    -3.207000000    -1.222000000     4.288000000
O     1.952000000    -5.919000000     2.058000000
H     1.619000000    -5.035000000     2.213000000
H     2.855000000    -5.893000000     2.375000000
O     2.992000000    -3.368000000    -2.878000000
H     3.035000000    -3.627000000    -3.798000000
H     2.136000000    -2.948000000    -2.787000000
O    -0.575000000    -0.016000000     3.901000000
H    -0.453000000     0.863000000     3.541000000
H     0.207000000    -0.168000000     4.431000000
O    -5.506000000     2.072000000    -3.861000000
H    -6.161000000     1.641000000    -3.313000000
H    -4.818000000     2.336000000    -3.250000000
O     1.539000000     7.815000000     0.253000000
H     1.378000000     7.015000000     0.753000000
H     1.333000000     8.524000000     0.862000000
O     3.720000000     3.896000000     3.901000000
H     3.867000000     4.352000000     3.073000000
H     2.768000000     3.813000000     3.963000000
O     3.979000000     1.067000000    -3.113000000
H     4.467000000     0.243000000    -3.091000000
H     4.081000000     1.429000000    -2.233000000
O    -4.826000000    -3.024000000    -4.541000000
H    -4.735000000    -2.962000000    -3.590000000
H    -5.501000000    -3.690000000    -4.674000000
O     3.816000000     0.983000000     4.111000000
H     4.413000000     1.274000000     3.422000000
H     3.432000000     1.791000000     4.453000000
O     2.024000000    -1.159000000     4.938000000
H     2.279000000    -0.905000000     5.824000000
H     2.654000000    -0.717000000     4.370000000
O    -4.197000000    -3.441000000    -1.894000000
H    -4.521000000    -3.007000000    -1.105000000
H    -3.328000000    -3.759000000    -1.653000000
O    -2.376000000    -4.653000000     5.176000000
H    -3.013000000    -3.988000000     4.917000000
H    -2.735000000    -5.029000000     5.980000000
O     0.059000000     1.082000000    -6.235000000
H     0.925000000     0.833000000    -5.913000000
H    -0.203000000     1.813000000    -5.674000000
O     0.718000000    -3.366000000    -5.315000000
H     0.174000000    -4.122000000    -5.532000000
H     0.573000000    -3.227000000    -4.379000000
O    -4.719000000     4.433000000    -0.130000000
H    -4.042000000     4.285000000    -0.791000000
H    -5.531000000     4.509000000    -0.632000000
O     4.118000000    -5.202000000    -0.692000000
H     4.056000000    -5.132000000     0.260000000
H     3.472000000    -4.578000000    -1.022000000
O    -1.244000000     2.268000000     2.414000000
H    -0.763000000     2.263000000     1.586000000
H    -2.000000000     2.832000000     2.248000000
O    -2.990000000     3.388000000    -2.026000000
H    -3.259000000     3.708000000    -2.887000000
H    -2.083000000     3.680000000    -1.934000000
O     5.165000000     5.520000000    -2.406000000
H     4.313000000     5.134000000    -2.607000000
H     4.989000000     6.131000000    -1.690000000
O     4.400000000     5.352000000     1.591000000
H     5.355000000     5.377000000     1.531000000
H     4.133000000     6.270000000     1.550000000
O     3.643000000     2.714000000    -0.284000000
H     2.693000000     2.729000000    -0.396000000
H     3.819000000     3.398000000     0.362000000
O    -2.275000000    -5.785000000    -0.282000000
H    -2.344000000    -5.589000000     0.652000000
H    -2.727000000    -6.622000000    -0.385000000
O     3.206000000     3.747000000    -3.472000000
H     3.085000000     3.940000000    -4.401000000
H     3.035000000     2.808000000    -3.398000000
O     0.122000000    -5.603000000     4.416000000
H     0.221000000    -6.490000000     4.763000000
H    -0.659000000    -5.261000000     4.852000000
O    -4.102000000     0.307000000     2.649000000
H    -3.447000000     0.744000000     3.193000000
H    -4.075000000     0.777000000     1.816000000
O     1.348000000     5.493000000     1.639000000
H     1.233000000     4.701000000     1.114000000
H     1.266000000     5.194000000     2.545000000
O     0.990000000    -6.587000000    -3.231000000
H     0.803000000    -7.526000000    -3.251000000
H     0.849000000    -6.335000000    -2.318000000
O    -2.056000000    -2.376000000    -3.747000000
H    -2.831000000    -2.140000000    -4.256000000
H    -2.187000000    -3.298000000    -3.524000000
O     4.045000000     7.975000000    -0.875000000
H     3.222000000     7.623000000    -0.536000000
H     3.778000000     8.656000000    -1.493000000
O    -3.118000000    -2.523000000     2.069000000
H    -2.706000000    -1.664000000     2.170000000
H    -3.842000000    -2.370000000     1.462000000
O    -1.798000000    -5.316000000     2.272000000
H    -1.174000000    -5.329000000     2.998000000
H    -1.768000000    -4.417000000     1.946000000
O    -3.055000000    -5.827000000    -3.470000000
H    -3.767000000    -6.127000000    -4.035000000
H    -3.481000000    -5.613000000    -2.640000000
O     1.177000000     7.857000000    -2.717000000
H     1.196000000     8.457000000    -1.971000000
H     1.454000000     7.016000000    -2.354000000
O     6.039000000     0.248000000     1.307000000
H     5.347000000     0.501000000     0.697000000
H     6.818000000     0.148000000     0.759000000
O     2.495000000    -3.563000000     3.405000000
H     1.911000000    -4.203000000     3.811000000
H     2.412000000    -2.782000000     3.952000000
O    -1.490000000     5.864000000    -1.658000000
H    -1.813000000     6.032000000    -0.773000000
H    -1.014000000     5.037000000    -1.585000000
O     2.321000000     5.500000000    -1.677000000
H     1.934000000     4.930000000    -1.012000000
H     2.459000000     4.928000000    -2.432000000
O     1.071000000     4.373000000     4.205000000
H     0.312000000     3.844000000     4.452000000
H     1.192000000     4.975000000     4.939000000
O     0.571000000    -6.077000000    -0.544000000
H     0.983000000    -6.102000000     0.320000000
H    -0.368000000    -6.120000000    -0.363000000
