144
-2848.29568
O     6.426000000    -3.724000000    -0.829000000
H     5.868000000    -3.556000000    -0.069000000
H     6.960000000    -2.933000000    -0.913000000
O     4.232000000     3.336000000     3.140000000
H     4.796000000     2.723000000     2.668000000
H     4.000000000     3.999000000     2.489000000
O     1.508000000     1.671000000    -3.357000000
H     1.547000000     0.726000000    -3.505000000
H     2.385000000     1.902000000    -3.050000000
O     1.828000000     2.029000000     3.673000000
H     2.648000000     2.346000000     3.294000000
H     1.404000000     2.815000000     4.018000000
O    -4.551000000     0.844000000     0.969000000
H    -4.861000000     1.728000000     1.166000000
H    -4.219000000     0.901000000     0.073000000
O    -2.458000000    -2.222000000    -3.876000000
H    -2.715000000    -1.597000000    -3.198000000
H    -3.121000000    -2.911000000    -3.830000000
O    -6.287000000    -1.032000000     2.082000000
H    -5.588000000    -0.474000000     1.741000000
H    -7.021000000    -0.435000000     2.225000000
O    -7.164000000     3.801000000    -3.747000000
H    -6.630000000     3.544000000    -2.995000000
H    -7.228000000     3.007000000    -4.278000000
O    -0.600000000    -3.939000000    -0.404000000
H    -1.472000000    -3.553000000    -0.494000000
H    -0.263000000    -3.581000000     0.417000000
O     5.930000000     1.694000000     1.779000000
H     5.537000000     0.845000000     1.575000000
H     6.773000000     1.477000000     2.178000000
O     0.860000000    -0.024000000    -7.091000000
H    -0.034000000    -0.168000000    -6.780000000
H     1.415000000    -0.345000000    -6.381000000
O    -7.057000000     1.364000000    -4.944000000
H    -6.208000000     1.011000000    -4.677000000
H    -7.418000000     0.700000000    -5.532000000
O    -5.734000000     2.622000000    -1.709000000
H    -6.087000000     2.342000000    -0.864000000
H    -5.045000000     1.986000000    -1.903000000
O    -1.799000000     2.016000000    -4.821000000
H    -1.825000000     1.387000000    -5.543000000
H    -1.961000000     1.489000000    -4.039000000
O    -2.812000000     4.203000000    -6.146000000
H    -3.711000000     3.932000000    -6.331000000
H    -2.473000000     3.526000000    -5.561000000
O     3.114000000    -3.644000000     0.086000000
H     2.626000000    -3.832000000     0.889000000
H     2.508000000    -3.869000000    -0.620000000
O     1.683000000     5.933000000     1.711000000
H     1.216000000     5.380000000     1.084000000
H     1.004000000     6.241000000     2.311000000
O    -3.248000000     0.884000000     4.756000000
H    -2.305000000     1.038000000     4.808000000
H    -3.337000000     0.150000000     4.147000000
O    -3.376000000     3.817000000    -0.245000000
H    -3.383000000     2.893000000    -0.495000000
H    -3.029000000     4.270000000    -1.013000000
O     5.625000000    -1.038000000     0.623000000
H     5.811000000    -1.244000000     1.539000000
H     5.017000000    -1.722000000     0.342000000
O    -5.531000000     3.365000000     1.636000000
H    -5.505000000     3.398000000     2.593000000
H    -4.693000000     3.738000000     1.361000000
O     0.187000000    -1.858000000     4.439000000
H     1.132000000    -1.739000000     4.350000000
H    -0.174000000    -0.975000000     4.365000000
O     1.389000000    -4.292000000    -2.204000000
H     0.515000000    -4.360000000    -1.820000000
H     1.322000000    -3.569000000    -2.828000000
O    -7.047000000    -1.393000000    -1.331000000
H    -7.693000000    -1.555000000    -2.019000000
H    -7.377000000    -0.623000000    -0.869000000
O    -3.160000000    -3.763000000     1.578000000
H    -3.452000000    -3.161000000     2.262000000
H    -3.463000000    -3.365000000     0.762000000
O    -0.344000000     3.943000000    -3.575000000
H    -0.675000000     3.150000000    -3.997000000
H     0.476000000     3.671000000    -3.163000000
O    -0.105000000     4.739000000    -0.622000000
H     0.698000000     4.518000000    -1.094000000
H    -0.796000000     4.671000000    -1.281000000
O     2.029000000    -0.951000000    -4.121000000
H     1.208000000    -1.435000000    -4.204000000
H     2.691000000    -1.538000000    -4.488000000
O    -2.325000000     5.239000000    -2.316000000
H    -1.865000000     4.823000000    -3.045000000
H    -3.081000000     5.665000000    -2.721000000
O    -0.309000000     0.688000000     4.903000000
H    -0.137000000     0.950000000     5.807000000
H     0.417000000     1.061000000     4.403000000
O     4.155000000     1.530000000    -2.932000000
H     4.782000000     2.011000000    -3.472000000
H     4.608000000     0.718000000    -2.705000000
O    -3.931000000    -1.975000000    -0.408000000
H    -4.083000000    -1.187000000     0.113000000
H    -4.701000000    -2.041000000    -0.973000000
O    -1.665000000     5.166000000     1.736000000
H    -0.916000000     5.074000000     1.147000000
H    -2.362000000     4.660000000     1.319000000
O     2.884000000    -0.958000000     4.831000000
H     3.742000000    -1.134000000     4.445000000
H     2.719000000    -0.035000000     4.640000000
O    -7.775000000     1.315000000    -0.218000000
H    -8.264000000     2.090000000    -0.494000000
H    -8.364000000     0.861000000     0.384000000
O     0.153000000     4.117000000     4.748000000
H     0.164000000     4.919000000     5.271000000
H    -0.649000000     4.181000000     4.230000000
O     1.916000000    -4.668000000     2.352000000
H     2.469000000    -4.612000000     3.132000000
H     1.021000000    -4.644000000     2.690000000
O     2.677000000     3.750000000    -1.077000000
H     3.010000000     2.853000000    -1.096000000
H     3.112000000     4.151000000    -0.324000000
O     5.665000000    -1.513000000     3.422000000
H     6.028000000    -2.392000000     3.316000000
H     5.955000000    -1.237000000     4.291000000
O    -0.680000000    -4.193000000     2.825000000
H    -1.567000000    -4.260000000     2.471000000
H    -0.682000000    -3.378000000     3.326000000
O     7.632000000    -1.180000000    -1.059000000
H     6.741000000    -0.850000000    -0.943000000
H     7.778000000    -1.149000000    -2.005000000
O    -5.031000000    -0.202000000    -3.744000000
H    -5.377000000    -0.610000000    -2.950000000
H    -4.126000000     0.019000000    -3.524000000
O    -1.677000000    -0.416000000    -6.337000000
H    -1.887000000    -0.727000000    -5.456000000
H    -2.148000000    -1.013000000    -6.920000000
O     3.806000000     3.225000000     5.931000000
H     3.507000000     4.115000000     6.122000000
H     3.949000000     3.218000000     4.985000000
O     0.263000000    -2.837000000    -4.657000000
H     0.236000000    -3.745000000    -4.959000000
H    -0.656000000    -2.570000000    -4.619000000
O    -2.765000000    -0.608000000     2.533000000
H    -3.180000000     0.041000000     1.965000000
H    -1.842000000    -0.591000000     2.282000000
O     2.423000000    -3.135000000     6.755000000
H     2.847000000    -2.405000000     6.305000000
H     2.919000000    -3.906000000     6.480000000
O     4.298000000    -3.942000000    -2.789000000
H     3.429000000    -4.275000000    -2.563000000
H     4.792000000    -3.989000000    -1.970000000
