144
-2794.02562
O     0.986000000     5.938000000    -0.006000000
H     0.813000000     6.652000000     0.608000000
H     0.469000000     5.205000000     0.328000000
O    -1.394000000    -3.010000000    -4.906000000
H    -1.882000000    -2.274000000    -4.538000000
H    -1.631000000    -3.755000000    -4.354000000
O     3.165000000     3.060000000     1.288000000
H     3.608000000     2.294000000     1.654000000
H     2.300000000     3.055000000     1.700000000
O     2.399000000    -7.144000000    -0.819000000
H     3.265000000    -7.550000000    -0.781000000
H     2.486000000    -6.345000000    -0.300000000
O    -4.419000000     1.347000000    -0.312000000
H    -4.068000000     2.197000000    -0.045000000
H    -4.341000000     1.344000000    -1.266000000
O     5.114000000    -1.279000000     3.164000000
H     6.063000000    -1.299000000     3.038000000
H     4.862000000    -2.200000000     3.234000000
O     4.825000000     5.424000000     1.102000000
H     5.678000000     5.283000000     0.692000000
H     4.425000000     4.555000000     1.127000000
O     2.777000000     5.556000000     4.150000000
H     3.447000000     5.368000000     3.493000000
H     2.661000000     4.728000000     4.617000000
O    -1.094000000    -1.124000000     3.505000000
H    -1.959000000    -0.723000000     3.587000000
H    -0.505000000    -0.390000000     3.331000000
O     1.535000000    -5.903000000    -3.998000000
H     1.412000000    -6.405000000    -3.193000000
H     2.201000000    -6.389000000    -4.485000000
O    -1.433000000     4.168000000    -2.377000000
H    -1.147000000     4.210000000    -1.465000000
H    -0.923000000     3.452000000    -2.755000000
O    -1.813000000    -4.851000000    -2.916000000
H    -2.296000000    -5.668000000    -3.042000000
H    -1.306000000    -4.993000000    -2.117000000
O    -2.224000000    -3.496000000     1.469000000
H    -2.760000000    -2.911000000     0.934000000
H    -1.851000000    -2.929000000     2.144000000
O     0.739000000     6.788000000    -2.466000000
H     0.721000000     6.610000000    -1.526000000
H     0.898000000     7.729000000    -2.529000000
O     0.803000000    -0.788000000    -4.583000000
H     0.690000000     0.094000000    -4.937000000
H     0.858000000    -1.351000000    -5.355000000
O    -5.146000000    -1.763000000    -4.173000000
H    -5.874000000    -1.287000000    -3.772000000
H    -4.824000000    -2.337000000    -3.478000000
O     0.600000000     2.951000000     6.660000000
H     1.109000000     2.863000000     5.854000000
H     0.974000000     3.717000000     7.096000000
O    -2.136000000     6.920000000     1.070000000
H    -2.354000000     6.685000000     1.973000000
H    -1.442000000     7.574000000     1.154000000
O    -1.450000000     3.119000000     4.099000000
H    -0.914000000     2.816000000     3.367000000
H    -0.877000000     3.048000000     4.863000000
O    -1.074000000     7.919000000     3.832000000
H    -0.558000000     8.617000000     3.428000000
H    -0.836000000     7.132000000     3.342000000
O    -4.675000000    -3.468000000    -2.144000000
H    -4.329000000    -2.789000000    -1.566000000
H    -4.290000000    -4.281000000    -1.816000000
O     0.907000000    -5.546000000     1.750000000
H     1.504000000    -6.003000000     2.343000000
H     0.930000000    -4.635000000     2.044000000
O    -5.664000000     4.841000000     0.793000000
H    -4.871000000     4.325000000     0.647000000
H    -5.398000000     5.744000000     0.617000000
O     4.479000000    -2.450000000    -0.784000000
H     5.049000000    -2.025000000    -0.144000000
H     4.332000000    -1.782000000    -1.455000000
O     3.267000000    -4.634000000     0.432000000
H     3.174000000    -4.262000000     1.309000000
H     3.552000000    -3.899000000    -0.111000000
O     1.300000000     1.795000000    -5.860000000
H     0.351000000     1.676000000    -5.817000000
H     1.481000000     1.939000000    -6.789000000
O     2.692000000    -0.141000000    -2.742000000
H     1.970000000    -0.398000000    -3.315000000
H     2.293000000     0.453000000    -2.106000000
O    -2.339000000    -7.682000000     0.264000000
H    -2.304000000    -7.184000000     1.081000000
H    -1.692000000    -7.260000000    -0.302000000
O    -3.660000000     0.515000000    -2.871000000
H    -3.870000000    -0.339000000    -3.249000000
H    -3.360000000     1.039000000    -3.613000000
O     0.151000000     5.471000000     2.984000000
H     1.042000000     5.643000000     3.287000000
H     0.207000000     4.621000000     2.546000000
O    -1.395000000    -3.490000000     5.279000000
H    -0.878000000    -3.535000000     6.083000000
H    -1.143000000    -2.658000000     4.878000000
O     5.180000000    -5.141000000    -2.341000000
H     4.551000000    -4.752000000    -1.734000000
H     5.522000000    -4.400000000    -2.840000000
O    -3.697000000    -1.810000000    -0.334000000
H    -4.596000000    -1.616000000    -0.068000000
H    -3.412000000    -1.026000000    -0.805000000
O     2.399000000     3.578000000    -1.337000000
H     2.821000000     3.321000000    -0.517000000
H     1.912000000     4.372000000    -1.118000000
O     3.566000000    -3.081000000    -4.912000000
H     2.734000000    -2.828000000    -4.512000000
H     4.202000000    -3.020000000    -4.199000000
O    -4.370000000     6.981000000    -0.292000000
H    -4.175000000     6.676000000    -1.178000000
H    -3.564000000     6.822000000     0.199000000
O    -3.494000000     5.361000000     3.274000000
H    -3.602000000     6.084000000     3.892000000
H    -2.632000000     4.999000000     3.477000000
O     4.150000000     1.168000000     3.006000000
H     4.361000000     0.244000000     3.141000000
H     5.001000000     1.603000000     2.953000000
O    -0.199000000    -6.251000000    -0.883000000
H     0.072000000    -5.665000000    -0.176000000
H     0.612000000    -6.669000000    -1.172000000
O     1.899000000     2.733000000     4.274000000
H     2.743000000     2.325000000     4.081000000
H     1.498000000     2.871000000     3.416000000
O    -3.210000000     3.459000000     0.810000000
H    -2.406000000     3.773000000     0.397000000
H    -3.308000000     4.006000000     1.590000000
O     3.218000000     7.620000000     0.003000000
H     3.849000000     7.103000000     0.503000000
H     2.486000000     7.022000000    -0.150000000
O    -4.026000000     5.224000000    -2.826000000
H    -3.194000000     4.887000000    -2.494000000
H    -3.965000000     5.122000000    -3.776000000
O    -1.370000000     1.120000000    -6.143000000
H    -2.114000000     1.642000000    -5.843000000
H    -1.574000000     0.916000000    -7.056000000
O     1.203000000     4.939000000    -4.550000000
H     0.839000000     5.473000000    -3.844000000
H     0.678000000     4.138000000    -4.540000000
O     0.639000000     2.542000000    -3.294000000
H     1.251000000     2.573000000    -2.559000000
H     0.894000000     1.762000000    -3.786000000
O    -1.653000000    -6.051000000     2.298000000
H    -0.705000000    -5.915000000     2.309000000
H    -2.002000000    -5.269000000     1.871000000
O     3.410000000     0.255000000     5.749000000
H     2.830000000     0.080000000     6.491000000
H     3.463000000    -0.580000000     5.284000000
