144
-2783.99269
O     3.439000000     1.838000000    -3.368000000
H     2.845000000     1.844000000    -4.119000000
H     3.353000000     2.712000000    -2.987000000
O    -4.006000000     0.654000000    -3.442000000
H    -3.833000000     0.928000000    -2.541000000
H    -3.261000000     0.989000000    -3.941000000
O     4.538000000    -0.534000000    -2.700000000
H     4.307000000    -0.567000000    -1.772000000
H     4.152000000     0.284000000    -3.014000000
O    -3.093000000     2.071000000     5.608000000
H    -2.358000000     2.392000000     5.085000000
H    -3.004000000     2.521000000     6.448000000
O     5.387000000     0.867000000     3.337000000
H     5.753000000     0.801000000     4.219000000
H     4.442000000     0.775000000     3.462000000
O     6.242000000    -3.092000000     3.091000000
H     5.832000000    -3.938000000     2.909000000
H     5.812000000    -2.784000000     3.889000000
O     5.068000000    -0.144000000     0.709000000
H     5.156000000    -0.442000000     1.614000000
H     5.920000000    -0.326000000     0.313000000
O     6.290000000    -4.068000000    -2.580000000
H     5.788000000    -3.489000000    -3.154000000
H     5.652000000    -4.380000000    -1.938000000
O    -5.594000000     5.970000000     0.106000000
H    -6.535000000     5.943000000     0.279000000
H    -5.191000000     5.988000000     0.974000000
O     1.313000000     2.102000000    -1.427000000
H     1.006000000     1.201000000    -1.322000000
H     2.185000000     2.014000000    -1.812000000
O    -3.927000000    -0.824000000     1.866000000
H    -4.307000000    -0.002000000     2.176000000
H    -3.011000000    -0.784000000     2.142000000
O     3.008000000     4.290000000     4.410000000
H     3.957000000     4.295000000     4.290000000
H     2.687000000     3.660000000     3.764000000
O     2.404000000    -3.328000000    -2.977000000
H     2.256000000    -3.145000000    -2.049000000
H     1.890000000    -4.116000000    -3.151000000
O    -3.716000000     3.836000000    -4.302000000
H    -4.003000000     3.497000000    -3.454000000
H    -2.831000000     3.486000000    -4.412000000
O    -2.947000000     5.310000000     4.418000000
H    -3.320000000     4.428000000     4.407000000
H    -2.058000000     5.189000000     4.753000000
O    -0.696000000    -4.380000000    -2.211000000
H    -1.391000000    -3.722000000    -2.222000000
H    -1.007000000    -5.046000000    -1.597000000
O     2.512000000     2.657000000     2.376000000
H     2.733000000     1.828000000     2.799000000
H     1.890000000     2.417000000     1.689000000
O    -5.844000000     0.946000000    -0.011000000
H    -5.648000000     1.407000000     0.804000000
H    -5.071000000     1.088000000    -0.558000000
O    -1.789000000    -4.038000000     0.626000000
H    -1.707000000    -3.575000000    -0.207000000
H    -1.432000000    -3.431000000     1.275000000
O    -4.482000000    -1.387000000    -5.112000000
H    -3.684000000    -1.892000000    -5.266000000
H    -4.187000000    -0.611000000    -4.636000000
O    -0.363000000     3.648000000     4.721000000
H     0.043000000     2.943000000     5.226000000
H     0.164000000     4.421000000     4.922000000
O    -0.598000000     4.363000000     1.776000000
H    -1.324000000     3.845000000     1.428000000
H    -0.473000000     4.033000000     2.665000000
O    -3.122000000     6.861000000     2.098000000
H    -2.960000000     6.316000000     2.868000000
H    -2.540000000     6.505000000     1.426000000
O    -3.000000000    -3.050000000    -1.581000000
H    -3.552000000    -2.276000000    -1.468000000
H    -3.498000000    -3.615000000    -2.172000000
O     2.665000000     0.056000000     3.672000000
H     2.712000000    -0.899000000     3.703000000
H     1.979000000     0.283000000     4.301000000
O     1.366000000    -4.856000000     1.440000000
H     1.500000000    -5.163000000     2.337000000
H     1.511000000    -3.911000000     1.485000000
O     0.935000000     1.210000000     6.154000000
H     0.395000000     1.302000000     6.939000000
H     1.816000000     1.042000000     6.487000000
O     5.327000000    -4.930000000    -0.162000000
H     5.391000000    -5.503000000     0.602000000
H     5.198000000    -4.056000000     0.205000000
O     1.996000000    -2.541000000     4.877000000
H     1.504000000    -2.262000000     5.649000000
H     1.828000000    -3.481000000     4.813000000
O     4.619000000    -2.524000000    -4.568000000
H     3.805000000    -2.972000000    -4.338000000
H     4.679000000    -1.802000000    -3.942000000
O    -2.663000000     1.222000000    -5.768000000
H    -3.046000000     1.198000000    -6.645000000
H    -2.449000000     0.309000000    -5.575000000
O    -2.145000000     4.763000000    -0.904000000
H    -2.577000000     3.985000000    -0.552000000
H    -1.223000000     4.514000000    -0.973000000
O    -1.038000000    -4.072000000    -5.227000000
H    -0.372000000    -4.591000000    -5.678000000
H    -0.885000000    -4.242000000    -4.297000000
O    -6.733000000     1.280000000    -3.780000000
H    -5.878000000     0.868000000    -3.653000000
H    -6.628000000     1.814000000    -4.567000000
O    -7.889000000     2.973000000    -0.805000000
H    -7.446000000     2.240000000    -1.233000000
H    -7.566000000     3.748000000    -1.264000000
O     2.867000000    -5.808000000    -0.977000000
H     3.788000000    -5.892000000    -0.733000000
H     2.424000000    -5.566000000    -0.164000000
O    -5.362000000    -1.609000000    -1.433000000
H    -5.431000000    -0.805000000    -0.919000000
H    -5.982000000    -1.487000000    -2.152000000
O     6.978000000    -0.061000000    -4.036000000
H     6.315000000    -0.277000000    -3.381000000
H     7.580000000    -0.804000000    -4.022000000
O    -1.139000000    -1.907000000     2.098000000
H    -1.116000000    -1.187000000     1.468000000
H    -0.481000000    -1.674000000     2.753000000
O    -4.554000000     6.474000000    -2.369000000
H    -3.855000000     5.858000000    -2.587000000
H    -4.852000000     6.201000000    -1.501000000
O     4.756000000    -1.879000000     5.035000000
H     3.819000000    -2.053000000     5.128000000
H     4.844000000    -0.942000000     5.209000000
O    -4.710000000     2.076000000     2.143000000
H    -4.964000000     2.484000000     2.971000000
H    -3.928000000     2.556000000     1.870000000
O     5.395000000     2.771000000     0.930000000
H     5.116000000     1.931000000     0.564000000
H     5.770000000     2.548000000     1.782000000
O     0.742000000     4.446000000    -0.607000000
H     0.389000000     4.469000000     0.282000000
H     0.950000000     3.524000000    -0.759000000
O    -5.115000000     3.560000000    -1.528000000
H    -4.503000000     2.888000000    -1.226000000
H    -5.097000000     4.226000000    -0.841000000
O    -1.455000000    -1.271000000    -5.515000000
H    -0.984000000    -1.070000000    -6.324000000
H    -1.127000000    -2.132000000    -5.255000000
O    -0.957000000     2.851000000    -3.487000000
H    -0.675000000     3.601000000    -4.010000000
H    -0.143000000     2.476000000    -3.149000000
O    -0.939000000     0.223000000     4.348000000
H    -0.379000000     0.403000000     5.103000000
H    -1.829000000     0.242000000     4.699000000
