144
-2795.00018
O     0.456000000     3.885000000    -4.083000000
H     1.339000000     4.095000000    -3.779000000
H    -0.049000000     3.757000000    -3.280000000
O     2.129000000     5.200000000    -1.961000000
H     2.789000000     5.573000000    -1.377000000
H     1.591000000     4.648000000    -1.393000000
O    -3.390000000    -3.002000000     1.914000000
H    -2.954000000    -2.594000000     2.662000000
H    -4.024000000    -2.348000000     1.619000000
O     1.978000000     7.421000000    -3.976000000
H     2.115000000     6.985000000    -3.134000000
H     1.098000000     7.156000000    -4.242000000
O     0.361000000     1.706000000    -5.620000000
H     0.205000000     2.611000000    -5.348000000
H    -0.202000000     1.184000000    -5.049000000
O    -6.142000000    -3.820000000     0.776000000
H    -5.905000000    -2.930000000     0.516000000
H    -6.085000000    -3.814000000     1.732000000
O    -5.119000000    -1.429000000     0.473000000
H    -4.835000000    -0.621000000     0.899000000
H    -5.273000000    -1.178000000    -0.438000000
O     6.499000000     1.780000000     0.510000000
H     5.916000000     2.477000000     0.812000000
H     6.292000000     1.034000000     1.073000000
O    -2.330000000    -2.654000000     4.745000000
H    -3.009000000    -2.866000000     5.385000000
H    -2.292000000    -1.698000000     4.742000000
O     2.024000000    -5.350000000    -1.470000000
H     1.810000000    -5.724000000    -0.615000000
H     1.215000000    -4.924000000    -1.754000000
O    -6.877000000    -1.245000000    -3.048000000
H    -6.070000000    -0.970000000    -2.614000000
H    -7.444000000    -0.475000000    -3.009000000
O     0.974000000    -6.706000000     0.688000000
H     1.311000000    -7.556000000     0.972000000
H     1.095000000    -6.135000000     1.446000000
O    -1.692000000    -7.873000000     0.892000000
H    -2.086000000    -7.016000000     1.057000000
H    -1.008000000    -7.701000000     0.245000000
O    -2.254000000     5.731000000    -1.902000000
H    -1.696000000     5.820000000    -1.130000000
H    -2.073000000     4.849000000    -2.228000000
O    -4.655000000     4.335000000    -4.356000000
H    -4.463000000     3.936000000    -5.205000000
H    -5.474000000     4.810000000    -4.495000000
O    -0.450000000    -4.482000000    -2.547000000
H    -0.788000000    -4.319000000    -3.427000000
H     0.011000000    -3.676000000    -2.314000000
O     5.003000000     3.327000000     2.225000000
H     5.455000000     4.170000000     2.222000000
H     4.152000000     3.512000000     2.622000000
O    -3.123000000    -5.705000000     1.432000000
H    -3.068000000    -4.775000000     1.652000000
H    -3.596000000    -6.097000000     2.166000000
O    -2.014000000     4.819000000    -6.137000000
H    -2.634000000     4.148000000    -5.852000000
H    -2.224000000     4.962000000    -7.060000000
O     4.452000000    -2.639000000    -0.922000000
H     3.907000000    -2.034000000    -1.425000000
H     4.702000000    -3.316000000    -1.551000000
O    -0.713000000     6.691000000    -4.508000000
H    -1.263000000     6.776000000    -3.729000000
H    -1.027000000     5.896000000    -4.938000000
O     1.919000000     1.195000000     4.090000000
H     2.292000000     2.020000000     3.779000000
H     1.023000000     1.196000000     3.754000000
O    -5.932000000     2.283000000    -0.562000000
H    -4.989000000     2.444000000    -0.577000000
H    -6.322000000     3.152000000    -0.464000000
O    -2.646000000     0.253000000     4.204000000
H    -1.775000000     0.541000000     3.928000000
H    -2.909000000     0.892000000     4.867000000
O    -3.890000000    -2.956000000    -3.147000000
H    -4.350000000    -3.359000000    -2.411000000
H    -3.175000000    -3.562000000    -3.343000000
O    -3.594000000     2.254000000    -2.891000000
H    -3.987000000     3.019000000    -3.311000000
H    -2.811000000     2.594000000    -2.457000000
O    -4.657000000    -0.225000000    -2.117000000
H    -4.192000000    -0.651000000    -2.837000000
H    -4.399000000     0.694000000    -2.176000000
O    -4.320000000     0.696000000     2.184000000
H    -4.377000000     1.625000000     1.961000000
H    -3.625000000     0.650000000     2.841000000
O    -1.310000000     0.800000000    -3.772000000
H    -0.832000000     1.245000000    -3.072000000
H    -2.233000000     0.939000000    -3.558000000
O    -2.884000000     6.965000000     1.315000000
H    -2.740000000     7.909000000     1.369000000
H    -2.004000000     6.588000000     1.316000000
O     0.614000000    -3.180000000     4.466000000
H     0.720000000    -3.214000000     5.417000000
H    -0.334000000    -3.175000000     4.331000000
O     0.514000000    -1.842000000    -2.603000000
H     0.134000000    -1.465000000    -1.810000000
H     1.459000000    -1.729000000    -2.493000000
O    -3.726000000     3.266000000     1.192000000
H    -4.124000000     4.101000000     1.439000000
H    -2.846000000     3.301000000     1.567000000
O    -0.448000000     1.558000000     2.749000000
H    -0.042000000     1.366000000     1.904000000
H    -0.972000000     2.343000000     2.590000000
O     5.078000000    -1.727000000     1.695000000
H     4.285000000    -1.280000000     1.991000000
H     4.809000000    -2.191000000     0.902000000
O     1.769000000    -4.897000000     2.494000000
H     1.336000000    -4.469000000     3.233000000
H     1.940000000    -4.188000000     1.874000000
O     2.785000000    -1.715000000     3.414000000
H     2.081000000    -2.244000000     3.788000000
H     2.630000000    -0.834000000     3.754000000
O     5.494000000     0.723000000     4.222000000
H     4.795000000     0.903000000     4.851000000
H     5.185000000     1.111000000     3.403000000
O    -2.648000000    -5.274000000    -1.311000000
H    -2.436000000    -5.226000000    -0.379000000
H    -1.848000000    -4.990000000    -1.753000000
O    -1.600000000     4.144000000     2.499000000
H    -1.587000000     4.281000000     3.446000000
H    -1.123000000     4.894000000     2.142000000
O     4.322000000    -6.257000000     2.060000000
H     3.373000000    -6.240000000     2.186000000
H     4.628000000    -5.431000000     2.435000000
O    -0.507000000    -1.802000000    -5.323000000
H     0.180000000    -2.427000000    -5.092000000
H    -0.601000000    -1.251000000    -4.546000000
O    -0.087000000     5.842000000     0.750000000
H     0.736000000     6.107000000     1.162000000
H     0.162000000     5.140000000     0.148000000
O     4.742000000     3.640000000    -2.985000000
H     3.867000000     3.929000000    -2.726000000
H     5.267000000     4.441000000    -2.989000000
O    -3.895000000     7.829000000    -1.721000000
H    -3.262000000     7.115000000    -1.792000000
H    -3.465000000     8.573000000    -2.144000000
O     5.205000000     1.100000000    -2.111000000
H     5.209000000     1.951000000    -2.550000000
H     5.660000000     1.255000000    -1.284000000
O     3.061000000    -0.571000000    -2.228000000
H     3.663000000     0.115000000    -1.942000000
H     3.007000000    -0.462000000    -3.178000000
O     4.877000000    -3.959000000     3.405000000
H     4.499000000    -3.618000000     4.216000000
H     5.088000000    -3.179000000     2.892000000
