144
-2809.08757
O     1.395000000     5.787000000    -1.797000000
H     1.292000000     4.835000000    -1.782000000
H     2.266000000     5.939000000    -1.431000000
O     3.829000000     5.769000000    -0.550000000
H     3.958000000     6.409000000     0.149000000
H     3.443000000     5.010000000    -0.112000000
O    -1.756000000    -2.997000000     4.776000000
H    -1.792000000    -2.781000000     5.708000000
H    -0.831000000    -3.173000000     4.606000000
O    -4.127000000    -1.660000000     3.679000000
H    -3.633000000    -0.890000000     3.395000000
H    -3.458000000    -2.281000000     3.966000000
O    -5.597000000    -0.552000000    -1.660000000
H    -6.321000000    -0.225000000    -2.194000000
H    -5.583000000     0.025000000    -0.897000000
O    -6.069000000    -4.062000000     4.073000000
H    -6.844000000    -3.512000000     4.183000000
H    -5.629000000    -3.705000000     3.302000000
O    -2.395000000     1.688000000     0.867000000
H    -2.052000000     1.110000000     0.186000000
H    -1.844000000     2.468000000     0.820000000
O     1.183000000     1.806000000     5.378000000
H     0.577000000     1.089000000     5.189000000
H     2.036000000     1.381000000     5.468000000
O     3.947000000    -3.624000000    -0.682000000
H     3.344000000    -3.532000000    -1.419000000
H     3.506000000    -4.230000000    -0.086000000
O    -0.221000000    -6.442000000     5.153000000
H    -0.937000000    -6.313000000     4.530000000
H     0.416000000    -5.763000000     4.929000000
O    -2.890000000    -6.837000000     1.384000000
H    -2.897000000    -6.146000000     2.047000000
H    -1.990000000    -7.162000000     1.387000000
O    -1.486000000     4.159000000    -0.646000000
H    -2.207000000     3.811000000    -1.171000000
H    -0.715000000     4.064000000    -1.206000000
O    -1.757000000     1.614000000    -4.560000000
H    -1.543000000     2.539000000    -4.435000000
H    -1.887000000     1.524000000    -5.504000000
O     0.852000000    -4.250000000    -3.096000000
H     0.245000000    -3.821000000    -3.699000000
H     1.231000000    -3.533000000    -2.587000000
O    -2.509000000    -5.405000000     3.856000000
H    -3.053000000    -5.783000000     4.547000000
H    -2.285000000    -4.532000000     4.178000000
O     1.173000000    -1.217000000     6.272000000
H     0.237000000    -1.030000000     6.200000000
H     1.285000000    -1.538000000     7.167000000
O    -5.409000000     1.072000000     0.999000000
H    -4.468000000     1.102000000     1.168000000
H    -5.798000000     1.568000000     1.719000000
O    -3.321000000    -0.059000000     6.542000000
H    -3.901000000     0.103000000     7.285000000
H    -3.911000000    -0.287000000     5.823000000
O    -2.739000000    -3.749000000    -4.837000000
H    -2.804000000    -4.085000000    -3.943000000
H    -1.974000000    -3.173000000    -4.821000000
O    -0.548000000     4.326000000    -4.247000000
H    -0.127000000     5.160000000    -4.455000000
H    -0.039000000     3.977000000    -3.516000000
O    -2.714000000     6.476000000    -0.395000000
H    -2.010000000     7.002000000    -0.775000000
H    -2.365000000     5.585000000    -0.379000000
O     5.096000000     4.959000000    -2.826000000
H     4.746000000     5.509000000    -3.527000000
H     5.018000000     5.497000000    -2.038000000
O     2.709000000     4.534000000    -6.672000000
H     2.522000000     4.031000000    -5.879000000
H     2.353000000     4.002000000    -7.383000000
O    -1.576000000    -5.513000000    -1.971000000
H    -1.257000000    -6.115000000    -2.644000000
H    -0.781000000    -5.164000000    -1.567000000
O    -3.576000000     3.876000000    -2.487000000
H    -3.658000000     4.623000000    -3.080000000
H    -3.620000000     3.110000000    -3.059000000
O    -3.106000000     0.871000000     3.316000000
H    -2.889000000     1.065000000     2.405000000
H    -3.046000000     1.716000000     3.762000000
O     0.678000000    -0.166000000    -4.233000000
H     1.407000000     0.329000000    -4.608000000
H    -0.040000000     0.464000000    -4.187000000
O    -0.103000000     5.687000000     1.342000000
H    -0.228000000     5.275000000     0.486000000
H     0.742000000     5.357000000     1.645000000
O     2.015000000    -2.035000000    -2.298000000
H     1.809000000    -1.535000000    -3.088000000
H     2.419000000    -1.398000000    -1.709000000
O     0.102000000     8.215000000    -1.804000000
H     0.444000000     7.515000000    -2.361000000
H     0.838000000     8.454000000    -1.241000000
O    -4.510000000    -0.474000000    -4.448000000
H    -4.858000000    -1.198000000    -3.927000000
H    -4.044000000     0.074000000    -3.816000000
O    -1.078000000     0.146000000     5.170000000
H    -1.759000000     0.259000000     5.832000000
H    -1.539000000     0.227000000     4.335000000
O     3.718000000    -2.225000000     3.954000000
H     3.268000000    -1.388000000     4.069000000
H     4.628000000    -2.041000000     4.188000000
O     4.605000000     3.470000000     2.226000000
H     5.297000000     4.084000000     2.471000000
H     5.068000000     2.661000000     2.011000000
O     3.606000000     0.385000000     6.501000000
H     3.578000000     0.354000000     7.458000000
H     3.033000000    -0.329000000     6.222000000
O    -3.951000000    -5.000000000    -0.728000000
H    -3.204000000    -5.176000000    -1.300000000
H    -3.750000000    -5.474000000     0.080000000
O     0.266000000     4.170000000     4.186000000
H     0.640000000     3.377000000     4.571000000
H     0.740000000     4.282000000     3.362000000
O     1.014000000    -3.374000000     4.660000000
H     1.727000000    -3.986000000     4.843000000
H     1.283000000    -2.560000000     5.087000000
O     2.100000000     4.150000000     1.931000000
H     3.021000000     3.938000000     2.079000000
H     1.889000000     3.735000000     1.095000000
O     4.408000000     2.067000000    -1.191000000
H     3.644000000     2.575000000    -0.916000000
H     4.953000000     2.011000000    -0.406000000
O    -3.526000000     5.589000000    -4.508000000
H    -3.326000000     5.625000000    -5.444000000
H    -2.690000000     5.768000000    -4.078000000
O     5.608000000     0.044000000    -2.428000000
H     5.851000000    -0.514000000    -1.690000000
H     5.125000000     0.769000000    -2.031000000
O     3.157000000     0.997000000    -5.193000000
H     3.047000000     1.116000000    -6.136000000
H     3.367000000     1.871000000    -4.864000000
O     6.407000000     1.543000000     1.393000000
H     6.609000000     0.642000000     1.647000000
H     7.202000000     1.854000000     0.962000000
O     3.245000000     3.499000000    -3.852000000
H     3.879000000     3.885000000    -3.247000000
H     2.550000000     3.163000000    -3.287000000
O    -4.700000000    -3.109000000    -2.415000000
H    -4.508000000    -3.701000000    -1.687000000
H    -4.742000000    -2.241000000    -2.013000000
O     2.936000000    -4.388000000     2.306000000
H     3.340000000    -3.543000000     2.505000000
H     2.242000000    -4.481000000     2.958000000
O    -0.295000000    -2.401000000    -5.191000000
H     0.216000000    -2.714000000    -5.937000000
H     0.075000000    -1.542000000    -4.991000000
