144
-2801.50551
O     1.162000000     5.654000000    -2.793000000
H     0.473000000     5.775000000    -3.446000000
H     1.098000000     4.731000000    -2.546000000
O     2.868000000     7.014000000    -0.999000000
H     2.238000000     7.341000000    -0.357000000
H     2.329000000     6.606000000    -1.677000000
O    -0.551000000    -1.748000000     5.224000000
H    -1.004000000    -2.207000000     4.517000000
H     0.166000000    -2.332000000     5.469000000
O    -3.661000000    -0.528000000     2.255000000
H    -3.003000000     0.149000000     2.100000000
H    -4.273000000    -0.439000000     1.524000000
O     0.379000000    -6.379000000     2.994000000
H    -0.440000000    -6.318000000     2.502000000
H     0.940000000    -6.938000000     2.456000000
O    -6.814000000    -3.002000000     1.371000000
H    -7.551000000    -2.964000000     0.761000000
H    -6.039000000    -3.017000000     0.810000000
O    -5.203000000    -5.699000000     2.762000000
H    -5.858000000    -5.019000000     2.918000000
H    -4.876000000    -5.519000000     1.880000000
O    -2.481000000    -1.019000000    -3.477000000
H    -3.012000000    -0.350000000    -3.044000000
H    -2.118000000    -0.576000000    -4.244000000
O    -2.236000000    -5.175000000     2.736000000
H    -2.243000000    -4.232000000     2.897000000
H    -3.141000000    -5.450000000     2.883000000
O     1.865000000     0.629000000     6.031000000
H     1.681000000    -0.268000000     6.309000000
H     2.818000000     0.706000000     6.083000000
O     1.797000000     4.090000000     4.446000000
H     1.303000000     4.641000000     5.053000000
H     2.441000000     4.681000000     4.056000000
O     1.385000000    -3.854000000     3.536000000
H     0.655000000    -4.281000000     3.088000000
H     2.020000000    -4.555000000     3.681000000
O    -1.143000000     5.266000000    -4.406000000
H    -0.953000000     4.459000000    -4.886000000
H    -1.075000000     5.957000000    -5.065000000
O    -1.455000000    -3.692000000    -2.894000000
H    -0.503000000    -3.751000000    -2.819000000
H    -1.618000000    -2.789000000    -3.169000000
O     3.792000000     5.706000000     3.696000000
H     4.376000000     6.460000000     3.770000000
H     3.753000000     5.524000000     2.757000000
O    -5.060000000    -2.581000000    -0.640000000
H    -4.801000000    -1.667000000    -0.764000000
H    -4.241000000    -3.038000000    -0.452000000
O     1.276000000    -4.103000000    -2.535000000
H     1.747000000    -4.579000000    -1.851000000
H     1.946000000    -3.563000000    -2.955000000
O    -2.858000000    -2.736000000     3.876000000
H    -3.105000000    -2.422000000     4.746000000
H    -2.999000000    -1.984000000     3.301000000
O    -4.598000000    -2.892000000    -4.295000000
H    -3.720000000    -2.657000000    -3.995000000
H    -4.871000000    -2.152000000    -4.838000000
O     0.114000000     2.809000000    -4.532000000
H     0.657000000     3.420000000    -5.031000000
H     0.366000000     2.956000000    -3.620000000
O     4.895000000     5.225000000    -3.078000000
H     4.212000000     5.772000000    -2.689000000
H     5.715000000     5.616000000    -2.777000000
O     1.416000000     4.718000000    -5.857000000
H     0.941000000     5.376000000    -6.364000000
H     2.333000000     4.986000000    -5.915000000
O    -1.816000000    -5.683000000    -0.919000000
H    -0.922000000    -5.982000000    -0.752000000
H    -1.722000000    -5.017000000    -1.600000000
O     6.235000000     2.963000000     2.940000000
H     6.782000000     2.275000000     2.563000000
H     5.767000000     3.333000000     2.192000000
O    -4.230000000     0.110000000    -0.443000000
H    -4.832000000     0.693000000     0.018000000
H    -3.847000000     0.656000000    -1.130000000
O     1.157000000    -0.820000000    -6.964000000
H     1.636000000    -0.340000000    -6.289000000
H     0.316000000    -1.029000000    -6.556000000
O    -0.184000000     5.259000000     0.158000000
H     0.265000000     6.025000000     0.517000000
H     0.505000000     4.602000000     0.060000000
O     4.746000000    -0.775000000     0.630000000
H     4.659000000     0.146000000     0.876000000
H     3.865000000    -1.135000000     0.737000000
O    -2.761000000     2.474000000     2.974000000
H    -2.636000000     3.285000000     2.481000000
H    -1.876000000     2.204000000     3.219000000
O    -3.123000000    -5.511000000     5.883000000
H    -3.379000000    -4.918000000     5.176000000
H    -3.190000000    -4.980000000     6.676000000
O    -3.041000000     4.948000000     1.481000000
H    -3.002000000     5.443000000     2.300000000
H    -2.238000000     5.187000000     1.018000000
O    -2.071000000    -0.108000000     6.879000000
H    -2.117000000     0.713000000     6.388000000
H    -1.737000000    -0.746000000     6.248000000
O     3.292000000     1.629000000     3.872000000
H     3.437000000     2.269000000     3.174000000
H     2.589000000     2.007000000     4.401000000
O     3.390000000    -4.604000000    -0.770000000
H     2.994000000    -4.165000000    -0.017000000
H     4.288000000    -4.788000000    -0.495000000
O    -4.318000000    -5.481000000     0.189000000
H    -3.467000000    -5.443000000    -0.247000000
H    -4.940000000    -5.665000000    -0.516000000
O    -0.378000000     2.213000000     4.761000000
H     0.234000000     1.530000000     5.033000000
H     0.180000000     2.946000000     4.502000000
O     3.484000000     5.115000000     1.092000000
H     3.526000000     5.672000000     0.315000000
H     3.099000000     4.297000000     0.779000000
O     4.212000000     1.967000000     0.962000000
H     3.392000000     2.401000000     0.729000000
H     4.808000000     2.178000000     0.243000000
O    -2.134000000     4.832000000    -1.809000000
H    -1.433000000     4.668000000    -1.177000000
H    -1.682000000     4.927000000    -2.648000000
O     6.031000000     1.544000000    -2.077000000
H     6.499000000     1.928000000    -1.336000000
H     5.285000000     2.127000000    -2.218000000
O     2.757000000     0.684000000    -5.400000000
H     3.656000000     0.650000000    -5.726000000
H     2.782000000     1.329000000    -4.694000000
O    -1.630000000    -7.833000000     1.159000000
H    -1.787000000    -6.910000000     1.359000000
H    -1.039000000    -7.818000000     0.406000000
O     3.170000000    -2.218000000    -3.253000000
H     4.050000000    -2.040000000    -2.923000000
H     2.755000000    -1.357000000    -3.304000000
O     3.597000000     2.592000000    -2.805000000
H     3.719000000     3.497000000    -3.089000000
H     2.660000000     2.521000000    -2.624000000
O     5.343000000    -0.240000000     4.344000000
H     4.657000000     0.368000000     4.068000000
H     6.118000000     0.036000000     3.855000000
O     0.626000000    -6.993000000    -0.431000000
H     0.736000000    -7.781000000    -0.963000000
H     1.441000000    -6.923000000     0.065000000
O     2.356000000    -2.496000000     1.298000000
H     2.225000000    -3.132000000     2.001000000
H     1.575000000    -1.943000000     1.327000000
O    -1.048000000     0.653000000    -5.358000000
H    -1.829000000     0.966000000    -5.815000000
H    -0.690000000     1.432000000    -4.933000000
