144
-2828.76163
O     4.055000000     1.826000000    -3.784000000
H     4.314000000     2.736000000    -3.928000000
H     3.099000000     1.838000000    -3.833000000
O    -2.046000000     5.980000000    -2.416000000
H    -1.961000000     5.162000000    -1.926000000
H    -2.986000000     6.161000000    -2.418000000
O     2.219000000     5.840000000    -1.359000000
H     2.373000000     5.540000000    -0.463000000
H     1.863000000     5.076000000    -1.810000000
O     3.294000000     2.500000000     1.045000000
H     2.619000000     3.009000000     1.494000000
H     4.096000000     3.009000000     1.165000000
O     5.667000000    -4.727000000    -0.188000000
H     6.349000000    -4.064000000    -0.290000000
H     4.957000000    -4.430000000    -0.757000000
O    -0.077000000     7.394000000    -1.290000000
H    -0.757000000     6.966000000    -1.810000000
H     0.614000000     6.735000000    -1.210000000
O     1.808000000    -1.450000000     4.373000000
H     2.381000000    -2.215000000     4.423000000
H     2.256000000    -0.855000000     3.772000000
O    -2.620000000     2.639000000     7.011000000
H    -3.480000000     2.223000000     6.953000000
H    -2.432000000     2.925000000     6.117000000
O     4.403000000    -2.519000000     4.183000000
H     4.866000000    -2.367000000     5.007000000
H     4.872000000    -1.985000000     3.542000000
O     3.325000000     1.837000000     4.878000000
H     3.336000000     1.265000000     5.646000000
H     3.489000000     1.250000000     4.140000000
O    -2.820000000    -1.437000000     4.376000000
H    -3.404000000    -1.516000000     3.622000000
H    -3.218000000    -1.991000000     5.047000000
O    -4.954000000     7.224000000     0.043000000
H    -4.774000000     6.810000000    -0.801000000
H    -4.096000000     7.291000000     0.463000000
O    -1.464000000    -6.093000000     3.153000000
H    -0.732000000    -6.068000000     3.770000000
H    -1.067000000    -5.900000000     2.304000000
O    -2.589000000    -4.420000000    -0.819000000
H    -2.667000000    -3.800000000    -0.094000000
H    -3.465000000    -4.794000000    -0.910000000
O     1.205000000     3.744000000     2.265000000
H     1.083000000     3.379000000     3.142000000
H     0.398000000     3.524000000     1.800000000
O    -3.067000000     3.044000000    -3.252000000
H    -2.432000000     3.023000000    -2.536000000
H    -2.875000000     2.259000000    -3.765000000
O    -0.122000000     8.443000000     1.101000000
H     0.532000000     9.140000000     1.043000000
H    -0.135000000     8.053000000     0.227000000
O    -1.651000000    -6.296000000    -2.595000000
H    -2.180000000    -5.614000000    -2.180000000
H    -1.568000000    -6.975000000    -1.925000000
O    -0.563000000     7.206000000    -4.205000000
H    -0.434000000     6.531000000    -4.872000000
H    -1.172000000     6.812000000    -3.580000000
O    -0.751000000     0.071000000     5.342000000
H    -1.604000000    -0.244000000     5.042000000
H    -0.119000000    -0.511000000     4.919000000
O    -3.132000000    -0.657000000    -2.505000000
H    -3.762000000    -0.155000000    -1.989000000
H    -3.176000000    -1.542000000    -2.142000000
O     1.680000000    -6.754000000    -1.597000000
H     1.226000000    -7.595000000    -1.657000000
H     1.492000000    -6.320000000    -2.429000000
O     1.184000000     3.875000000    -2.563000000
H     1.187000000     3.471000000    -3.431000000
H     0.264000000     3.870000000    -2.300000000
O    -2.552000000     4.980000000    -5.167000000
H    -3.083000000     5.508000000    -4.571000000
H    -2.479000000     4.130000000    -4.733000000
O    -0.473000000    -5.926000000     0.415000000
H    -1.191000000    -5.426000000     0.028000000
H     0.264000000    -5.787000000    -0.180000000
O     5.906000000    -5.946000000     2.417000000
H     5.633000000    -5.374000000     3.134000000
H     5.251000000    -5.804000000     1.734000000
O    -3.700000000     3.680000000     0.584000000
H    -2.773000000     3.539000000     0.390000000
H    -3.772000000     3.532000000     1.527000000
O     2.329000000    -0.622000000    -5.684000000
H     1.721000000    -0.732000000    -4.952000000
H     1.853000000    -0.078000000    -6.311000000
O     3.209000000    -3.969000000    -1.562000000
H     2.504000000    -3.324000000    -1.501000000
H     2.883000000    -4.621000000    -2.183000000
O     2.931000000     0.086000000     2.496000000
H     2.748000000     0.793000000     1.877000000
H     3.516000000    -0.503000000     2.019000000
O    -4.720000000     1.009000000    -1.119000000
H    -4.712000000     1.902000000    -1.463000000
H    -4.710000000     1.119000000    -0.168000000
O     1.299000000    -4.872000000    -3.732000000
H     0.352000000    -4.769000000    -3.821000000
H     1.507000000    -5.640000000    -4.266000000
O    -2.897000000     7.969000000     1.679000000
H    -3.357000000     8.808000000     1.706000000
H    -2.070000000     8.163000000     1.238000000
O     1.113000000     2.078000000    -4.625000000
H     0.337000000     1.578000000    -4.373000000
H     1.086000000     2.098000000    -5.581000000
O     0.827000000    -1.018000000     7.518000000
H     0.343000000    -0.487000000     6.885000000
H     0.655000000    -0.600000000     8.362000000
O    -3.838000000    -5.532000000     1.793000000
H    -3.360000000    -4.745000000     2.051000000
H    -3.484000000    -6.222000000     2.354000000
O    -1.813000000     3.646000000     4.381000000
H    -1.680000000     4.447000000     3.874000000
H    -0.935000000     3.392000000     4.663000000
O    -4.176000000     2.894000000     3.276000000
H    -4.353000000     3.733000000     3.701000000
H    -3.297000000     2.657000000     3.570000000
O    -1.863000000     0.652000000    -4.345000000
H    -2.199000000     0.324000000    -5.179000000
H    -2.300000000     0.116000000    -3.683000000
O    -1.721000000     5.682000000     2.480000000
H    -1.504000000     5.004000000     1.840000000
H    -2.047000000     6.413000000     1.954000000
O     1.507000000     6.663000000     2.527000000
H     0.834000000     7.280000000     2.239000000
H     1.106000000     5.801000000     2.417000000
O     6.346000000    -1.743000000    -1.318000000
H     6.037000000    -2.337000000    -2.002000000
H     5.579000000    -1.216000000    -1.093000000
O     4.480000000     0.602000000    -1.008000000
H     3.787000000     1.091000000    -0.565000000
H     4.567000000     1.030000000    -1.860000000
O    -2.742000000    -2.459000000     1.231000000
H    -2.006000000    -1.970000000     1.598000000
H    -3.518000000    -2.025000000     1.584000000
O     2.909000000    -5.851000000     0.823000000
H     2.479000000    -6.247000000     0.065000000
H     3.233000000    -5.010000000     0.503000000
O     1.621000000    -5.673000000     3.622000000
H     2.397000000    -5.483000000     4.149000000
H     1.951000000    -5.745000000     2.727000000
O     0.719000000     2.673000000     4.910000000
H     1.648000000     2.444000000     4.917000000
H     0.265000000     1.832000000     4.958000000
O    -6.186000000     4.294000000    -0.349000000
H    -5.271000000     4.119000000    -0.128000000
H    -6.206000000     4.293000000    -1.306000000
