144
-2829.52573
O     2.564000000     2.984000000    -5.966000000
H     2.233000000     2.163000000    -6.331000000
H     3.075000000     2.717000000    -5.202000000
O     3.706000000    -3.477000000     2.481000000
H     4.212000000    -2.877000000     1.934000000
H     4.354000000    -4.089000000     2.830000000
O     2.888000000     0.420000000     4.690000000
H     2.885000000     1.008000000     5.445000000
H     3.763000000     0.032000000     4.692000000
O     0.898000000     6.210000000     1.044000000
H     0.328000000     6.850000000     0.617000000
H     1.092000000     5.569000000     0.360000000
O    -4.228000000     1.821000000    -1.946000000
H    -3.733000000     1.393000000    -2.645000000
H    -5.032000000     2.120000000    -2.370000000
O     3.029000000    -2.252000000    -1.440000000
H     3.099000000    -1.326000000    -1.207000000
H     3.924000000    -2.513000000    -1.657000000
O    -3.825000000    -3.014000000     2.320000000
H    -3.079000000    -3.070000000     2.917000000
H    -3.813000000    -3.844000000     1.844000000
O     7.069000000     2.972000000    -3.129000000
H     7.428000000     2.291000000    -2.561000000
H     6.167000000     2.696000000    -3.294000000
O     3.234000000     5.507000000    -2.573000000
H     3.176000000     5.176000000    -1.677000000
H     2.829000000     6.373000000    -2.536000000
O     2.754000000     0.127000000    -4.461000000
H     3.160000000     0.728000000    -3.837000000
H     3.451000000    -0.488000000    -4.690000000
O    -2.809000000    -5.126000000     0.892000000
H    -3.026000000    -5.472000000     1.758000000
H    -3.209000000    -5.744000000     0.280000000
O     3.967000000     2.862000000    -3.372000000
H     3.767000000     2.485000000    -2.515000000
H     3.971000000     3.807000000    -3.222000000
O    -0.022000000     1.633000000     2.605000000
H    -0.345000000     1.237000000     3.415000000
H     0.258000000     0.889000000     2.071000000
O    -4.018000000     2.287000000     0.745000000
H    -4.127000000     2.068000000    -0.180000000
H    -4.600000000     1.682000000     1.205000000
O    -2.094000000     1.712000000    -4.274000000
H    -1.740000000     2.599000000    -4.223000000
H    -1.361000000     1.178000000    -4.580000000
O    -2.206000000     3.947000000    -1.281000000
H    -1.701000000     3.941000000    -0.467000000
H    -2.970000000     3.402000000    -1.092000000
O    -3.935000000    -0.352000000    -4.796000000
H    -3.242000000     0.263000000    -4.556000000
H    -3.584000000    -0.827000000    -5.549000000
O     7.965000000    -0.052000000     0.383000000
H     8.071000000     0.115000000    -0.553000000
H     8.015000000     0.813000000     0.789000000
O    -0.151000000    -4.269000000     0.155000000
H    -1.085000000    -4.447000000     0.260000000
H    -0.116000000    -3.484000000    -0.391000000
O     0.063000000     0.119000000    -5.208000000
H     0.961000000     0.115000000    -4.875000000
H     0.031000000    -0.617000000    -5.819000000
O    -3.984000000     0.890000000     5.032000000
H    -4.265000000     0.359000000     5.777000000
H    -4.781000000     1.026000000     4.520000000
O     5.552000000    -2.771000000    -2.723000000
H     6.348000000    -3.131000000    -2.330000000
H     5.122000000    -3.524000000    -3.127000000
O    -6.194000000    -2.425000000    -1.342000000
H    -6.442000000    -1.528000000    -1.118000000
H    -6.294000000    -2.471000000    -2.293000000
O     2.220000000    -2.211000000     4.306000000
H     2.792000000    -2.728000000     3.738000000
H     2.370000000    -1.305000000     4.034000000
O     3.956000000     1.663000000     2.402000000
H     4.120000000     2.555000000     2.097000000
H     3.017000000     1.642000000     2.585000000
O    -1.123000000     4.081000000    -4.049000000
H    -0.703000000     4.931000000    -4.186000000
H    -1.342000000     4.070000000    -3.118000000
O     6.685000000    -3.909000000     0.415000000
H     6.088000000    -3.171000000     0.292000000
H     7.202000000    -3.672000000     1.186000000
O     5.121000000     0.054000000    -2.830000000
H     5.371000000    -0.868000000    -2.893000000
H     4.771000000     0.146000000    -1.944000000
O    -5.969000000     1.366000000     3.099000000
H    -5.851000000     2.310000000     3.205000000
H    -6.902000000     1.223000000     3.258000000
O    -1.241000000     0.975000000     5.132000000
H    -2.192000000     1.066000000     5.202000000
H    -0.913000000     1.874000000     5.160000000
O     1.558000000     3.737000000     2.395000000
H     0.977000000     2.977000000     2.393000000
H     1.522000000     4.068000000     1.498000000
O     6.120000000     2.444000000     0.077000000
H     5.495000000     3.092000000     0.402000000
H     5.579000000     1.696000000    -0.175000000
O    -1.742000000    -2.594000000     4.195000000
H    -1.612000000    -2.049000000     4.971000000
H    -0.889000000    -3.002000000     4.044000000
O     0.111000000    -5.777000000     4.976000000
H     0.660000000    -6.558000000     4.898000000
H     0.580000000    -5.104000000     4.484000000
O     2.521000000     4.363000000    -0.240000000
H     2.801000000     3.489000000    -0.512000000
H     3.030000000     4.541000000     0.551000000
O     2.375000000    -5.084000000    -1.203000000
H     1.469000000    -5.069000000    -1.509000000
H     2.516000000    -4.214000000    -0.828000000
O     4.685000000     4.270000000     1.470000000
H     4.624000000     4.486000000     2.400000000
H     4.874000000     5.105000000     1.042000000
O    -4.112000000     5.226000000    -2.788000000
H    -4.920000000     4.718000000    -2.854000000
H    -3.538000000     4.693000000    -2.238000000
O    -5.938000000     4.356000000     0.612000000
H    -5.370000000     3.589000000     0.684000000
H    -5.495000000     5.031000000     1.127000000
O    -5.636000000    -5.006000000    -0.790000000
H    -5.002000000    -5.550000000    -1.256000000
H    -5.624000000    -4.170000000    -1.256000000
O    -5.921000000    -0.677000000     0.714000000
H    -5.287000000    -1.380000000     0.856000000
H    -6.297000000    -0.515000000     1.580000000
O    -5.059000000    -1.910000000     4.787000000
H    -4.883000000    -2.733000000     4.331000000
H    -4.531000000    -1.261000000     4.323000000
O     2.017000000     5.444000000    -4.939000000
H     2.435000000     5.178000000    -4.119000000
H     2.253000000     4.757000000    -5.562000000
O     0.481000000    -2.574000000    -2.100000000
H     1.419000000    -2.427000000    -1.984000000
H     0.097000000    -1.697000000    -2.082000000
O     1.195000000    -4.695000000     2.888000000
H     2.091000000    -4.438000000     2.674000000
H     0.735000000    -4.684000000     2.049000000
O    -1.677000000     3.704000000     1.382000000
H    -1.092000000     2.970000000     1.569000000
H    -2.495000000     3.294000000     1.101000000
O     5.332000000    -1.550000000     1.056000000
H     4.825000000    -0.838000000     0.664000000
H     6.129000000    -1.128000000     1.377000000
O    -7.592000000    -3.381000000     1.074000000
H    -7.141000000    -3.179000000     0.255000000
H    -8.270000000    -4.010000000     0.826000000
