144
-2816.73149
O     1.857000000     3.620000000     4.920000000
H     1.186000000     3.862000000     5.558000000
H     1.386000000     3.115000000     4.257000000
O     2.858000000     6.641000000    -3.403000000
H     2.573000000     5.743000000    -3.232000000
H     2.118000000     7.045000000    -3.857000000
O     6.138000000     4.321000000    -2.271000000
H     5.357000000     4.804000000    -2.000000000
H     6.804000000     4.996000000    -2.402000000
O    -4.419000000     2.337000000    -0.011000000
H    -4.458000000     2.536000000    -0.946000000
H    -4.735000000     1.436000000     0.056000000
O    -0.386000000    -3.008000000    -2.364000000
H     0.498000000    -2.769000000    -2.641000000
H    -0.653000000    -2.301000000    -1.777000000
O     4.439000000    -1.071000000     0.512000000
H     3.988000000    -0.268000000     0.249000000
H     5.361000000    -0.820000000     0.568000000
O    -3.537000000    -1.608000000     4.851000000
H    -3.848000000    -1.576000000     5.756000000
H    -2.595000000    -1.759000000     4.926000000
O    -5.443000000    -5.730000000     0.702000000
H    -5.617000000    -4.897000000     1.140000000
H    -4.490000000    -5.762000000     0.619000000
O     4.399000000     6.121000000    -0.895000000
H     3.554000000     5.731000000    -1.120000000
H     4.213000000     7.054000000    -0.797000000
O     6.373000000    -1.553000000    -2.261000000
H     6.740000000    -2.434000000    -2.187000000
H     7.087000000    -0.974000000    -1.994000000
O    -1.728000000     2.511000000    -6.990000000
H    -2.631000000     2.208000000    -7.083000000
H    -1.456000000     2.194000000    -6.129000000
O     6.269000000     1.742000000    -1.090000000
H     6.087000000     2.501000000    -1.644000000
H     5.422000000     1.519000000    -0.704000000
O     0.783000000     0.467000000     6.184000000
H    -0.016000000     0.992000000     6.130000000
H     0.488000000    -0.382000000     6.514000000
O    -2.744000000     1.699000000     2.895000000
H    -2.840000000     1.678000000     1.942000000
H    -3.596000000     1.419000000     3.228000000
O     0.070000000     3.802000000    -3.543000000
H    -0.059000000     4.640000000    -3.098000000
H     0.989000000     3.813000000    -3.812000000
O    -1.297000000     1.129000000    -4.563000000
H    -1.400000000     1.877000000    -3.975000000
H    -0.355000000     0.954000000    -4.566000000
O    -2.537000000    -5.878000000     0.625000000
H    -1.791000000    -5.648000000     1.180000000
H    -2.253000000    -6.663000000     0.156000000
O     3.741000000    -1.910000000    -5.833000000
H     3.812000000    -1.318000000    -5.084000000
H     4.118000000    -1.418000000    -6.563000000
O     3.121000000     3.336000000    -4.175000000
H     4.026000000     3.058000000    -4.315000000
H     2.791000000     2.744000000    -3.499000000
O    -6.450000000    -1.465000000    -2.761000000
H    -6.198000000    -1.627000000    -3.670000000
H    -5.640000000    -1.183000000    -2.335000000
O    -3.741000000    -4.043000000    -1.394000000
H    -3.633000000    -4.388000000    -2.280000000
H    -3.436000000    -4.749000000    -0.824000000
O    -5.600000000    -2.694000000     0.920000000
H    -6.118000000    -1.889000000     0.927000000
H    -5.519000000    -2.920000000    -0.006000000
O     4.436000000    -0.154000000    -3.690000000
H     5.314000000    -0.362000000    -3.372000000
H     4.130000000     0.543000000    -3.109000000
O    -4.417000000    -3.707000000     3.305000000
H    -4.224000000    -2.842000000     3.666000000
H    -4.711000000    -3.533000000     2.411000000
O     2.264000000    -0.755000000     3.952000000
H     1.649000000    -0.130000000     4.337000000
H     2.982000000    -0.214000000     3.624000000
O     7.318000000    -0.972000000     0.803000000
H     7.750000000    -1.623000000     1.356000000
H     7.793000000    -1.009000000    -0.027000000
O     1.563000000     0.738000000    -4.561000000
H     1.681000000     1.129000000    -5.426000000
H     2.244000000     1.140000000    -4.021000000
O     8.735000000     2.102000000    -0.301000000
H     7.839000000     1.966000000    -0.610000000
H     8.717000000     1.821000000     0.614000000
O    -4.780000000     2.490000000    -2.686000000
H    -4.798000000     1.824000000    -3.373000000
H    -4.786000000     3.322000000    -3.159000000
O     2.509000000     4.410000000    -6.916000000
H     2.474000000     3.942000000    -6.082000000
H     1.671000000     4.871000000    -6.967000000
O    -1.647000000     1.853000000     5.579000000
H    -2.458000000     1.798000000     6.085000000
H    -1.876000000     1.499000000     4.720000000
O     3.601000000    -3.352000000    -1.001000000
H     4.084000000    -2.539000000    -0.853000000
H     2.963000000    -3.385000000    -0.289000000
O    -4.147000000    -1.434000000    -1.544000000
H    -4.140000000    -2.334000000    -1.219000000
H    -3.763000000    -1.493000000    -2.419000000
O     6.107000000     3.236000000     2.284000000
H     6.196000000     4.113000000     1.913000000
H     5.164000000     3.072000000     2.288000000
O     0.976000000     4.251000000     1.445000000
H     0.513000000     5.078000000     1.579000000
H     0.741000000     3.719000000     2.205000000
O     5.860000000     2.549000000    -4.286000000
H     5.878000000     3.302000000    -3.695000000
H     6.667000000     2.072000000    -4.093000000
O     2.091000000     4.423000000    -1.271000000
H     2.036000000     3.479000000    -1.417000000
H     1.632000000     4.565000000    -0.444000000
O     3.314000000    -2.722000000     2.237000000
H     2.816000000    -2.099000000     2.766000000
H     4.021000000    -2.201000000     1.856000000
O     3.274000000     2.698000000     1.753000000
H     3.506000000     2.365000000     0.886000000
H     2.657000000     3.409000000     1.580000000
O    -4.959000000     0.981000000    -4.692000000
H    -5.112000000     1.033000000    -5.635000000
H    -4.589000000     0.109000000    -4.557000000
O    -4.978000000     0.584000000     3.941000000
H    -4.606000000    -0.268000000     4.167000000
H    -5.699000000     0.702000000     4.559000000
O    -6.881000000     1.395000000     2.032000000
H    -7.278000000     0.714000000     1.488000000
H    -6.225000000     0.933000000     2.553000000
O     1.766000000    -1.749000000    -3.148000000
H     1.792000000    -0.823000000    -3.387000000
H     2.601000000    -1.906000000    -2.707000000
O     2.949000000    -2.989000000     5.918000000
H     3.732000000    -2.494000000     6.160000000
H     2.495000000    -2.426000000     5.291000000
O     1.366000000    -2.837000000     0.441000000
H     2.047000000    -2.610000000     1.073000000
H     0.836000000    -2.043000000     0.365000000
O    -2.898000000    -1.000000000    -4.122000000
H    -2.466000000    -0.222000000    -4.475000000
H    -2.282000000    -1.713000000    -4.289000000
O     0.395000000     2.226000000     3.190000000
H     0.502000000     1.505000000     2.570000000
H    -0.547000000     2.397000000     3.199000000
O     4.933000000     0.327000000     3.521000000
H     4.986000000     0.864000000     2.730000000
H     5.186000000     0.918000000     4.230000000
