144
-2795.62126
O     3.685000000     4.247000000    -5.084000000
H     3.935000000     3.833000000    -4.258000000
H     2.806000000     4.589000000    -4.925000000
O     5.873000000     0.241000000     4.139000000
H     5.052000000     0.711000000     4.282000000
H     6.311000000     0.730000000     3.442000000
O     2.243000000    -0.205000000     3.478000000
H     3.052000000    -0.507000000     3.891000000
H     2.511000000     0.071000000     2.602000000
O    -2.152000000     4.281000000     0.650000000
H    -2.532000000     3.556000000     1.147000000
H    -2.416000000     4.115000000    -0.255000000
O    -7.713000000     1.503000000     0.905000000
H    -8.537000000     1.027000000     0.803000000
H    -7.155000000     1.170000000     0.202000000
O    -2.352000000     0.306000000    -3.392000000
H    -1.674000000    -0.287000000    -3.716000000
H    -2.097000000     0.492000000    -2.488000000
O    -4.715000000     1.925000000    -3.727000000
H    -5.427000000     1.580000000    -4.267000000
H    -4.008000000     1.288000000    -3.828000000
O    -0.483000000    -1.846000000    -3.664000000
H    -0.152000000    -2.579000000    -4.182000000
H     0.290000000    -1.309000000    -3.488000000
O     7.396000000    -0.760000000    -0.058000000
H     6.909000000    -0.926000000     0.749000000
H     7.778000000    -1.607000000    -0.287000000
O    -1.479000000    -5.516000000    -2.765000000
H    -0.704000000    -5.070000000    -3.106000000
H    -2.045000000    -5.631000000    -3.528000000
O     5.560000000    -1.390000000     1.733000000
H     4.864000000    -0.876000000     1.322000000
H     5.107000000    -1.932000000     2.378000000
O    -5.081000000    -1.247000000     1.995000000
H    -5.735000000    -1.931000000     1.853000000
H    -4.961000000    -0.848000000     1.133000000
O     4.235000000     0.285000000    -3.290000000
H     4.921000000     0.507000000    -3.920000000
H     4.535000000    -0.529000000    -2.887000000
O    -2.822000000     0.057000000     4.162000000
H    -3.332000000    -0.366000000     4.853000000
H    -1.913000000    -0.158000000     4.370000000
O     3.469000000     2.752000000    -2.618000000
H     3.250000000     2.697000000    -1.688000000
H     3.958000000     1.949000000    -2.797000000
O    -2.753000000     2.309000000     2.597000000
H    -2.001000000     2.836000000     2.866000000
H    -2.763000000     1.574000000     3.211000000
O     1.140000000     4.097000000    -2.927000000
H     2.004000000     3.717000000    -2.767000000
H     0.674000000     3.430000000    -3.431000000
O     1.541000000    -0.106000000    -3.049000000
H     1.331000000    -0.126000000    -2.115000000
H     2.467000000     0.132000000    -3.081000000
O     7.555000000     1.990000000     1.769000000
H     8.339000000     1.583000000     1.400000000
H     7.149000000     2.442000000     1.029000000
O    -6.666000000    -0.213000000    -1.162000000
H    -7.155000000     0.235000000    -1.852000000
H    -6.338000000    -1.009000000    -1.580000000
O     0.290000000    -5.302000000    -0.654000000
H    -0.300000000    -5.700000000    -1.295000000
H    -0.286000000    -4.797000000    -0.080000000
O     0.296000000     1.858000000    -4.690000000
H     0.596000000     1.389000000    -5.468000000
H     0.405000000     1.231000000    -3.975000000
O     1.784000000     5.673000000     2.008000000
H     2.416000000     5.262000000     1.418000000
H     1.412000000     6.391000000     1.497000000
O     1.332000000     2.629000000     4.353000000
H     0.934000000     3.239000000     3.732000000
H     1.236000000     1.770000000     3.940000000
O    -4.978000000     3.992000000     3.727000000
H    -4.519000000     3.683000000     2.946000000
H    -5.630000000     3.314000000     3.906000000
O     4.266000000     3.675000000     3.543000000
H     3.995000000     3.001000000     4.167000000
H     5.219000000     3.709000000     3.627000000
O    -0.261000000     3.891000000     2.470000000
H    -0.881000000     4.070000000     1.764000000
H     0.423000000     4.552000000     2.363000000
O     6.145000000     1.429000000    -0.906000000
H     5.199000000     1.326000000    -0.797000000
H     6.523000000     0.711000000    -0.399000000
O    -1.525000000     6.817000000     0.427000000
H    -0.585000000     6.905000000     0.583000000
H    -1.692000000     5.877000000     0.493000000
O     5.249000000     4.823000000    -1.430000000
H     5.055000000     3.900000000    -1.589000000
H     4.602000000     5.095000000    -0.779000000
O     6.412000000     5.719000000     1.236000000
H     5.688000000     5.255000000     0.815000000
H     5.993000000     6.431000000     1.718000000
O     0.888000000    -5.785000000     3.308000000
H     1.270000000    -6.461000000     2.749000000
H     0.760000000    -5.036000000     2.726000000
O    -6.014000000     2.992000000    -1.445000000
H    -5.777000000     2.477000000    -0.674000000
H    -5.707000000     2.470000000    -2.186000000
O    -5.606000000    -2.575000000    -2.118000000
H    -4.655000000    -2.626000000    -2.023000000
H    -5.896000000    -3.487000000    -2.113000000
O    -1.598000000    -3.978000000     0.825000000
H    -2.080000000    -3.364000000     1.379000000
H    -2.171000000    -4.742000000     0.759000000
O    -3.287000000    -5.664000000    -0.571000000
H    -3.279000000    -6.066000000    -1.440000000
H    -3.256000000    -6.403000000     0.036000000
O     2.888000000    -3.912000000    -0.436000000
H     2.082000000    -4.406000000    -0.583000000
H     3.408000000    -4.468000000     0.145000000
O    -5.622000000    -1.772000000    -5.174000000
H    -4.718000000    -2.023000000    -5.366000000
H    -5.649000000    -1.686000000    -4.221000000
O     0.677000000     5.662000000    -0.872000000
H     0.964000000     5.100000000    -1.591000000
H     1.234000000     6.438000000    -0.937000000
O    -2.935000000    -2.922000000     3.051000000
H    -2.802000000    -2.099000000     3.520000000
H    -3.765000000    -2.803000000     2.590000000
O    -4.912000000     2.253000000     1.095000000
H    -5.637000000     1.999000000     1.666000000
H    -4.126000000     2.019000000     1.587000000
O    -3.097000000    -3.022000000    -2.989000000
H    -2.721000000    -3.635000000    -2.357000000
H    -2.451000000    -2.319000000    -3.054000000
O     4.523000000    -1.517000000    -1.183000000
H     4.336000000    -0.823000000    -0.550000000
H     4.230000000    -2.320000000    -0.751000000
O     0.572000000    -3.051000000     2.255000000
H     0.061000000    -3.049000000     1.445000000
H     0.990000000    -2.190000000     2.275000000
O     5.224000000    -5.446000000    -2.145000000
H     4.527000000    -5.013000000    -1.653000000
H     6.033000000    -5.102000000    -1.767000000
O    -5.696000000     1.271000000     3.424000000
H    -6.492000000     0.770000000     3.245000000
H    -4.992000000     0.623000000     3.386000000
O     3.678000000     4.146000000     0.822000000
H     3.417000000     3.361000000     0.340000000
H     3.814000000     3.841000000     1.719000000
O     7.371000000     2.932000000    -2.799000000
H     6.878000000     2.484000000    -3.487000000
H     7.031000000     2.565000000    -1.983000000
