144
-2823.39370
O     2.052000000     5.339000000     4.028000000
H     1.608000000     5.523000000     4.855000000
H     1.835000000     6.084000000     3.468000000
O     2.893000000    -0.765000000     3.377000000
H     1.938000000    -0.820000000     3.352000000
H     3.104000000    -0.018000000     2.817000000
O    -0.030000000    -0.840000000     3.084000000
H    -0.017000000     0.107000000     3.222000000
H    -0.332000000    -0.947000000     2.182000000
O    -1.178000000     1.379000000    -5.620000000
H    -1.898000000     1.811000000    -5.162000000
H    -0.487000000     2.040000000    -5.657000000
O    -2.059000000    -3.068000000    -4.949000000
H    -2.055000000    -3.596000000    -4.151000000
H    -1.518000000    -2.308000000    -4.736000000
O     5.680000000    -0.181000000     1.253000000
H     5.364000000    -1.083000000     1.189000000
H     4.884000000     0.350000000     1.283000000
O    -2.794000000    -6.016000000    -0.184000000
H    -1.918000000    -5.755000000    -0.470000000
H    -2.745000000    -6.968000000    -0.103000000
O    -0.931000000    -4.163000000     1.779000000
H    -1.846000000    -4.288000000     2.032000000
H    -0.593000000    -3.526000000     2.408000000
O     4.306000000    -0.612000000    -1.343000000
H     3.901000000    -0.936000000    -0.538000000
H     5.104000000    -1.132000000    -1.435000000
O    -6.404000000    -2.062000000    -0.730000000
H    -6.849000000    -2.891000000    -0.552000000
H    -7.032000000    -1.391000000    -0.464000000
O     2.978000000     5.997000000    -0.232000000
H     3.142000000     6.813000000    -0.704000000
H     2.594000000     5.414000000    -0.887000000
O     1.824000000    -6.370000000    -2.259000000
H     1.058000000    -6.101000000    -1.751000000
H     1.461000000    -6.727000000    -3.069000000
O    -2.801000000     1.639000000     2.334000000
H    -3.387000000     1.273000000     1.671000000
H    -2.739000000     0.956000000     3.002000000
O     2.166000000     3.720000000    -1.880000000
H     1.907000000     3.498000000    -0.986000000
H     2.193000000     2.880000000    -2.338000000
O    -3.915000000     2.975000000    -1.308000000
H    -4.496000000     3.734000000    -1.374000000
H    -4.337000000     2.406000000    -0.665000000
O    -3.128000000    -0.337000000     4.248000000
H    -3.756000000    -1.024000000     4.024000000
H    -3.325000000    -0.121000000     5.160000000
O    -0.257000000    -1.174000000    -4.442000000
H     0.394000000    -0.925000000    -3.786000000
H    -0.587000000    -0.342000000    -4.781000000
O     4.749000000     3.060000000     6.299000000
H     4.129000000     3.488000000     6.889000000
H     4.225000000     2.816000000     5.536000000
O    -6.709000000     0.389000000    -4.474000000
H    -7.225000000     0.818000000    -3.792000000
H    -5.970000000     0.000000000    -4.006000000
O     1.603000000    -4.854000000     3.375000000
H     1.048000000    -4.188000000     3.782000000
H     1.105000000    -5.147000000     2.612000000
O     0.232000000     4.852000000     1.548000000
H     0.872000000     4.233000000     1.900000000
H     0.531000000     5.026000000     0.656000000
O     8.100000000    -0.196000000    -0.087000000
H     7.165000000    -0.264000000     0.108000000
H     8.457000000     0.323000000     0.634000000
O    -6.280000000    -0.122000000     2.644000000
H    -6.007000000    -1.039000000     2.674000000
H    -6.511000000     0.089000000     3.549000000
O    -3.907000000     4.009000000     3.689000000
H    -4.231000000     4.477000000     2.919000000
H    -3.526000000     3.205000000     3.337000000
O    -1.053000000     3.335000000     3.728000000
H    -1.771000000     2.847000000     3.324000000
H    -0.750000000     3.928000000     3.040000000
O     2.501000000     7.521000000     2.205000000
H     1.884000000     8.008000000     1.659000000
H     2.923000000     6.908000000     1.603000000
O    -2.493000000     5.795000000     1.025000000
H    -1.700000000     5.336000000     1.303000000
H    -2.192000000     6.411000000     0.357000000
O     4.737000000     3.703000000     0.060000000
H     4.522000000     4.590000000    -0.230000000
H     3.916000000     3.362000000     0.415000000
O    -1.731000000    -4.743000000    -2.978000000
H    -1.170000000    -4.256000000    -2.374000000
H    -1.356000000    -5.624000000    -2.994000000
O     1.476000000    -2.836000000    -5.801000000
H     0.870000000    -2.256000000    -5.340000000
H     1.524000000    -2.478000000    -6.687000000
O     4.028000000    -2.570000000     1.364000000
H     3.606000000    -2.266000000     2.169000000
H     4.485000000    -3.370000000     1.621000000
O     7.148000000     4.796000000     0.487000000
H     6.574000000     5.551000000     0.359000000
H     6.553000000     4.075000000     0.692000000
O    -0.090000000    -3.047000000     4.532000000
H    -0.123000000    -2.169000000     4.153000000
H     0.100000000    -2.900000000     5.459000000
O     5.585000000    -0.785000000     4.751000000
H     4.921000000    -0.517000000     4.116000000
H     6.102000000     0.005000000     4.905000000
O    -4.641000000    -0.397000000    -2.686000000
H    -5.388000000    -0.945000000    -2.445000000
H    -4.038000000    -0.475000000    -1.947000000
O    -4.176000000    -2.482000000     3.074000000
H    -4.415000000    -2.874000000     2.234000000
H    -3.684000000    -3.166000000     3.528000000
O     2.520000000    -3.384000000    -0.990000000
H     2.983000000    -2.946000000    -0.275000000
H     2.952000000    -3.069000000    -1.783000000
O     1.791000000    -0.244000000     6.402000000
H     1.060000000    -0.835000000     6.581000000
H     1.442000000     0.383000000     5.767000000
O    -4.574000000    -3.720000000     0.706000000
H    -4.224000000    -4.392000000     0.121000000
H    -4.935000000    -3.056000000     0.119000000
O     0.070000000    -4.878000000    -0.640000000
H     0.975000000    -4.604000000    -0.787000000
H    -0.126000000    -4.588000000     0.251000000
O     6.715000000     1.694000000     4.903000000
H     6.233000000     2.124000000     5.609000000
H     6.708000000     2.329000000     4.187000000
O    -5.171000000     1.428000000     0.764000000
H    -5.440000000     1.284000000     1.671000000
H    -5.740000000     0.854000000     0.251000000
O    -3.394000000     2.234000000    -3.830000000
H    -3.896000000     1.458000000    -3.579000000
H    -3.128000000     2.626000000    -2.998000000
O    -4.581000000    -4.280000000    -5.122000000
H    -4.443000000    -5.179000000    -4.822000000
H    -3.705000000    -3.895000000    -5.137000000
O     2.275000000    -0.807000000    -3.078000000
H     2.752000000    -1.446000000    -3.609000000
H     2.809000000    -0.706000000    -2.290000000
O     0.963000000     1.412000000     4.147000000
H     1.737000000     1.955000000     3.997000000
H     0.291000000     2.029000000     4.437000000
O     3.434000000     2.772000000     3.848000000
H     3.412000000     2.357000000     2.986000000
H     3.067000000     3.644000000     3.704000000
O     5.693000000     1.861000000    -1.728000000
H     5.201000000     1.055000000    -1.574000000
H     5.337000000     2.484000000    -1.094000000
