144
-2818.70352
O     0.946000000    -2.175000000     5.552000000
H     1.423000000    -1.351000000     5.453000000
H     0.175000000    -2.074000000     4.993000000
O     2.434000000     0.344000000     4.365000000
H     3.325000000     0.493000000     4.049000000
H     1.895000000     0.946000000     3.852000000
O    -3.797000000    -1.193000000     2.407000000
H    -4.197000000    -1.503000000     3.220000000
H    -3.634000000    -0.262000000     2.560000000
O     1.031000000    -2.442000000    -3.244000000
H     1.957000000    -2.523000000    -3.017000000
H     0.897000000    -1.503000000    -3.370000000
O    -3.691000000     1.384000000     3.070000000
H    -3.700000000     1.778000000     3.942000000
H    -3.209000000     2.011000000     2.530000000
O     1.461000000     2.681000000    -4.549000000
H     1.967000000     2.756000000    -5.358000000
H     2.025000000     3.064000000    -3.877000000
O    -0.772000000     3.961000000    -5.129000000
H    -0.110000000     3.386000000    -4.746000000
H    -0.281000000     4.728000000    -5.425000000
O     2.067000000     2.023000000     6.805000000
H     2.855000000     1.480000000     6.775000000
H     2.310000000     2.767000000     7.357000000
O     5.514000000     2.220000000     4.612000000
H     5.084000000     1.635000000     5.236000000
H     5.391000000     1.796000000     3.763000000
O     0.125000000     0.256000000    -4.964000000
H     0.735000000     0.956000000    -4.732000000
H    -0.675000000     0.466000000    -4.483000000
O    -7.319000000    -2.559000000    -0.368000000
H    -7.921000000    -1.950000000    -0.795000000
H    -6.572000000    -2.018000000    -0.112000000
O     1.615000000    -4.215000000    -0.355000000
H     1.758000000    -4.581000000     0.517000000
H     2.087000000    -3.382000000    -0.347000000
O     6.244000000     0.248000000     0.251000000
H     7.166000000     0.237000000     0.507000000
H     6.238000000     0.676000000    -0.606000000
O    -3.728000000    -3.871000000     1.369000000
H    -3.777000000    -2.988000000     1.735000000
H    -2.807000000    -3.983000000     1.136000000
O    -2.242000000     3.644000000    -2.092000000
H    -1.808000000     4.119000000    -1.383000000
H    -2.075000000     2.721000000    -1.898000000
O     2.720000000     3.807000000    -2.191000000
H     2.544000000     3.803000000    -1.250000000
H     2.646000000     4.727000000    -2.445000000
O    -0.305000000     4.833000000    -0.180000000
H     0.380000000     5.101000000     0.432000000
H    -0.072000000     5.262000000    -1.003000000
O    -0.456000000    -4.796000000    -2.843000000
H    -0.107000000    -5.079000000    -1.998000000
H     0.043000000    -4.007000000    -3.056000000
O     5.104000000     2.340000000    -2.033000000
H     4.313000000     2.873000000    -2.120000000
H     5.824000000     2.964000000    -2.122000000
O     4.718000000     5.860000000    -0.923000000
H     5.248000000     5.683000000    -0.146000000
H     4.844000000     6.794000000    -1.091000000
O     2.678000000    -1.568000000    -0.583000000
H     3.097000000    -1.059000000    -1.277000000
H     2.015000000    -0.980000000    -0.221000000
O    -3.039000000    -5.381000000    -3.162000000
H    -2.153000000    -5.055000000    -3.005000000
H    -3.525000000    -5.141000000    -2.374000000
O     1.856000000     6.643000000     3.090000000
H     2.211000000     6.537000000     2.207000000
H     2.437000000     6.122000000     3.645000000
O    -4.102000000     1.767000000    -0.342000000
H    -4.761000000     2.336000000    -0.739000000
H    -3.539000000     2.362000000     0.154000000
O     2.498000000     5.225000000     0.431000000
H     2.626000000     4.328000000     0.738000000
H     3.332000000     5.460000000     0.023000000
O     3.552000000     0.161000000    -2.305000000
H     3.878000000     0.982000000    -1.936000000
H     3.664000000     0.262000000    -3.250000000
O     0.129000000    -7.047000000    -0.879000000
H     0.173000000    -6.826000000     0.051000000
H     0.476000000    -7.938000000    -0.930000000
O    -1.553000000    -0.894000000     4.574000000
H    -2.387000000    -1.334000000     4.738000000
H    -1.795000000     0.011000000     4.377000000
O    -0.875000000    -2.939000000    -5.261000000
H    -1.535000000    -2.246000000    -5.281000000
H    -0.505000000    -2.891000000    -4.379000000
O    -2.581000000    -4.765000000    -6.052000000
H    -3.037000000    -5.200000000    -5.332000000
H    -1.942000000    -4.196000000    -5.622000000
O    -4.302000000    -1.508000000    -2.578000000
H    -4.447000000    -1.138000000    -1.707000000
H    -3.353000000    -1.470000000    -2.700000000
O     0.622000000     3.187000000     4.727000000
H     1.124000000     2.810000000     5.450000000
H     0.804000000     2.612000000     3.984000000
O    -5.132000000    -0.767000000     0.065000000
H    -4.861000000     0.149000000     0.014000000
H    -4.730000000    -1.092000000     0.870000000
O     1.648000000    -4.234000000     2.366000000
H     2.554000000    -4.057000000     2.621000000
H     1.355000000    -4.910000000     2.977000000
O     1.910000000    -0.741000000    -7.054000000
H     2.788000000    -0.368000000    -7.128000000
H     1.559000000    -0.367000000    -6.246000000
O     6.133000000     5.464000000     1.312000000
H     6.176000000     6.296000000     1.783000000
H     6.128000000     4.799000000     2.001000000
O    -2.801000000     1.205000000    -3.799000000
H    -3.221000000     0.634000000    -4.443000000
H    -3.014000000     2.091000000    -4.090000000
O    -6.023000000     0.174000000    -3.735000000
H    -5.282000000    -0.293000000    -3.349000000
H    -5.746000000     1.089000000    -3.756000000
O    -4.931000000    -4.733000000    -0.804000000
H    -5.634000000    -4.094000000    -0.923000000
H    -4.409000000    -4.384000000    -0.083000000
O    -0.626000000     5.131000000     3.434000000
H     0.165000000     5.513000000     3.053000000
H    -0.309000000     4.391000000     3.952000000
O    -0.777000000    -3.839000000     1.276000000
H    -0.381000000    -3.898000000     0.407000000
H    -0.067000000    -3.532000000     1.842000000
O    -3.412000000    -0.774000000    -5.765000000
H    -2.721000000    -0.534000000    -6.383000000
H    -4.158000000    -1.005000000    -6.319000000
O    -5.892000000    -3.048000000    -3.897000000
H    -6.105000000    -2.297000000    -4.452000000
H    -5.124000000    -2.768000000    -3.399000000
O     4.701000000    -2.124000000     1.397000000
H     3.984000000    -2.233000000     0.772000000
H     5.315000000    -1.537000000     0.956000000
O    -2.303000000     3.526000000     1.917000000
H    -1.739000000     3.673000000     1.158000000
H    -1.861000000     3.978000000     2.636000000
O     3.239000000     4.486000000     3.913000000
H     4.124000000     4.151000000     3.766000000
H     2.664000000     3.786000000     3.605000000
O     5.264000000     2.519000000     1.781000000
H     5.733000000     2.042000000     1.096000000
H     4.344000000     2.466000000     1.523000000
O    -0.378000000    -6.575000000     1.704000000
H     0.141000000    -6.556000000     2.508000000
H    -0.593000000    -5.658000000     1.536000000
