144
-2809.80874
O    -1.519000000     0.044000000     6.076000000
H    -0.740000000     0.600000000     6.103000000
H    -1.209000000    -0.784000000     5.710000000
O     3.845000000     3.609000000    -1.525000000
H     4.612000000     3.752000000    -0.970000000
H     3.415000000     4.463000000    -1.563000000
O     0.163000000    -3.205000000     0.301000000
H     0.421000000    -2.295000000     0.454000000
H     0.976000000    -3.645000000     0.053000000
O     0.160000000    -3.204000000    -5.633000000
H    -0.793000000    -3.201000000    -5.543000000
H     0.392000000    -4.130000000    -5.693000000
O     3.757000000    -3.030000000    -4.287000000
H     3.622000000    -2.111000000    -4.055000000
H     3.270000000    -3.517000000    -3.623000000
O     1.066000000     1.314000000     5.912000000
H     1.747000000     1.920000000     6.203000000
H     1.175000000     1.271000000     4.962000000
O     5.817000000     0.149000000     6.705000000
H     5.488000000     0.282000000     5.816000000
H     6.767000000     0.093000000     6.603000000
O     2.592000000    -4.273000000     0.423000000
H     2.503000000    -5.018000000     1.018000000
H     2.909000000    -3.560000000     0.977000000
O     2.863000000     4.039000000     4.012000000
H     2.485000000     3.302000000     3.532000000
H     2.126000000     4.414000000     4.494000000
O    -5.704000000    -1.385000000    -2.761000000
H    -5.639000000    -1.829000000    -3.606000000
H    -5.277000000    -1.980000000    -2.144000000
O    -3.976000000     3.082000000     4.503000000
H    -4.134000000     3.927000000     4.923000000
H    -4.817000000     2.852000000     4.106000000
O     2.820000000    -0.484000000     7.112000000
H     3.340000000     0.312000000     7.222000000
H     1.990000000    -0.180000000     6.744000000
O     3.495000000    -2.209000000     1.855000000
H     3.774000000    -2.481000000     2.729000000
H     3.161000000    -1.320000000     1.975000000
O    -4.063000000    -3.592000000    -1.598000000
H    -3.584000000    -3.664000000    -0.773000000
H    -4.192000000    -4.497000000    -1.881000000
O     0.013000000     2.045000000    -4.404000000
H     0.671000000     2.174000000    -3.721000000
H     0.405000000     1.402000000    -4.995000000
O    -2.640000000    -3.869000000     0.728000000
H    -1.698000000    -3.967000000     0.860000000
H    -2.931000000    -3.334000000     1.467000000
O     2.294000000     2.604000000    -3.444000000
H     2.951000000     2.880000000    -4.083000000
H     2.617000000     2.942000000    -2.608000000
O     4.201000000    -3.878000000     4.076000000
H     5.060000000    -3.513000000     4.288000000
H     4.230000000    -4.771000000     4.419000000
O     5.253000000     1.169000000    -2.192000000
H     5.589000000     0.862000000    -1.350000000
H     4.903000000     2.040000000    -2.007000000
O    -5.012000000     1.983000000    -4.301000000
H    -5.780000000     1.525000000    -4.643000000
H    -5.020000000     2.830000000    -4.748000000
O     1.248000000    -0.455000000    -5.526000000
H     0.848000000    -1.324000000    -5.498000000
H     1.278000000    -0.236000000    -6.458000000
O     1.496000000    -2.877000000     4.380000000
H     1.666000000    -1.936000000     4.348000000
H     2.060000000    -3.199000000     5.083000000
O     3.478000000    -0.437000000    -3.619000000
H     2.634000000    -0.261000000    -4.034000000
H     3.641000000     0.333000000    -3.073000000
O    -2.789000000     2.633000000    -2.668000000
H    -2.086000000     2.063000000    -2.980000000
H    -3.519000000     2.461000000    -3.263000000
O    -2.958000000    -2.832000000    -4.912000000
H    -2.678000000    -2.583000000    -4.031000000
H    -3.824000000    -2.437000000    -5.009000000
O     0.136000000     3.953000000     2.249000000
H     0.719000000     3.212000000     2.417000000
H    -0.741000000     3.570000000     2.234000000
O     6.134000000    -3.890000000     1.474000000
H     5.488000000    -3.289000000     1.104000000
H     6.001000000    -4.709000000     0.997000000
O    -3.211000000     2.066000000     6.737000000
H    -3.583000000     2.459000000     5.947000000
H    -2.633000000     1.377000000     6.411000000
O    -3.255000000     0.571000000    -6.899000000
H    -3.112000000     0.414000000    -5.966000000
H    -2.390000000     0.464000000    -7.295000000
O     5.224000000     0.348000000     0.496000000
H     4.478000000     0.154000000     1.063000000
H     5.956000000     0.477000000     1.098000000
O    -2.833000000    -2.944000000     3.533000000
H    -2.656000000    -3.680000000     4.120000000
H    -3.775000000    -2.797000000     3.612000000
O    -5.774000000     0.891000000    -1.006000000
H    -5.531000000     0.039000000    -1.369000000
H    -5.984000000     1.426000000    -1.771000000
O    -1.665000000     4.743000000    -4.045000000
H    -2.150000000     4.959000000    -3.249000000
H    -1.082000000     4.030000000    -3.784000000
O     4.875000000     0.393000000     4.077000000
H     5.277000000    -0.462000000     3.929000000
H     4.083000000     0.382000000     3.540000000
O     2.705000000    -4.561000000    -2.347000000
H     3.487000000    -5.097000000    -2.482000000
H     2.718000000    -4.349000000    -1.414000000
O     5.279000000     4.030000000     5.402000000
H     4.571000000     3.823000000     4.792000000
H     5.672000000     3.181000000     5.608000000
O    -0.215000000    -4.449000000     3.013000000
H     0.430000000    -4.008000000     3.566000000
H    -0.166000000    -3.990000000     2.174000000
O    -1.953000000    -5.196000000    -3.531000000
H    -2.130000000    -4.387000000    -4.010000000
H    -0.998000000    -5.269000000    -3.528000000
O    -3.687000000     2.548000000     0.063000000
H    -4.493000000     2.060000000    -0.105000000
H    -3.159000000     2.420000000    -0.725000000
O    -5.463000000    -2.653000000     2.991000000
H    -5.504000000    -1.986000000     2.305000000
H    -5.818000000    -3.441000000     2.580000000
O    -1.388000000     5.419000000     0.257000000
H    -0.501000000     5.079000000     0.372000000
H    -1.891000000     4.671000000    -0.065000000
O     4.803000000     5.597000000     2.758000000
H     4.813000000     6.271000000     3.438000000
H     4.224000000     4.918000000     3.102000000
O     2.861000000     3.091000000     7.264000000
H     2.726000000     3.988000000     6.960000000
H     3.812000000     2.999000000     7.325000000
O    -4.076000000    -6.333000000    -2.432000000
H    -3.219000000    -6.031000000    -2.734000000
H    -4.462000000    -6.760000000    -3.197000000
O     0.214000000     4.651000000     5.162000000
H    -0.493000000     5.281000000     5.299000000
H    -0.233000000     3.814000000     5.034000000
O    -2.451000000     3.269000000     2.308000000
H    -3.051000000     3.378000000     3.046000000
H    -2.981000000     2.852000000     1.629000000
O     1.612000000     6.103000000     1.886000000
H     1.170000000     5.263000000     2.003000000
H     2.545000000     5.889000000     1.910000000
O     5.388000000    -1.954000000    -1.685000000
H     4.930000000    -1.308000000    -2.223000000
H     5.777000000    -1.442000000    -0.976000000
