144
-2819.84027
O     2.035000000     4.604000000     4.541000000
H     2.638000000     5.340000000     4.643000000
H     2.011000000     4.443000000     3.598000000
O    -1.624000000    -3.225000000    -2.320000000
H    -2.144000000    -3.757000000    -1.719000000
H    -1.554000000    -2.374000000    -1.888000000
O    -6.362000000    -1.793000000    -3.709000000
H    -7.141000000    -1.705000000    -3.160000000
H    -6.017000000    -0.904000000    -3.780000000
O    -4.518000000     4.847000000    -4.540000000
H    -3.892000000     4.996000000    -5.249000000
H    -4.017000000     4.379000000    -3.873000000
O     6.420000000    -1.923000000    -0.524000000
H     5.957000000    -1.503000000     0.201000000
H     5.892000000    -1.720000000    -1.296000000
O     2.454000000     1.172000000     4.905000000
H     2.565000000     1.160000000     3.954000000
H     3.278000000     1.527000000     5.238000000
O     4.982000000    -2.030000000    -3.018000000
H     4.577000000    -2.700000000    -3.569000000
H     5.728000000    -1.718000000    -3.531000000
O     7.124000000    -0.213000000     3.458000000
H     6.974000000     0.300000000     2.663000000
H     7.767000000     0.294000000     3.953000000
O     0.996000000     2.021000000    -3.450000000
H     1.795000000     1.526000000    -3.271000000
H     0.985000000     2.708000000    -2.783000000
O     1.839000000     3.448000000     1.813000000
H     2.113000000     3.648000000     0.917000000
H     2.117000000     2.543000000     1.953000000
O     8.935000000    -1.490000000     0.858000000
H     8.060000000    -1.318000000     0.509000000
H     8.858000000    -2.342000000     1.288000000
O     2.919000000    -1.538000000    -5.584000000
H     2.121000000    -2.024000000    -5.375000000
H     3.216000000    -1.911000000    -6.414000000
O    -0.891000000     3.864000000     2.326000000
H    -1.358000000     3.427000000     1.614000000
H     0.034000000     3.756000000     2.107000000
O     2.954000000     4.392000000    -0.456000000
H     2.618000000     5.088000000    -1.021000000
H     3.337000000     3.757000000    -1.061000000
O     5.356000000    -4.728000000     1.763000000
H     6.073000000    -4.226000000     1.376000000
H     4.566000000    -4.251000000     1.508000000
O    -4.812000000     0.510000000    -5.365000000
H    -4.345000000     0.963000000    -4.663000000
H    -4.546000000     0.966000000    -6.163000000
O    -1.785000000     1.742000000    -3.496000000
H    -1.899000000     0.882000000    -3.901000000
H    -0.867000000     1.961000000    -3.655000000
O    -2.603000000    -1.959000000     2.970000000
H    -2.505000000    -1.550000000     3.829000000
H    -1.742000000    -1.867000000     2.561000000
O     5.840000000     3.481000000     2.618000000
H     5.039000000     3.032000000     2.887000000
H     6.365000000     3.533000000     3.417000000
O     3.956000000     1.944000000    -1.491000000
H     3.781000000     1.351000000    -0.760000000
H     3.949000000     1.380000000    -2.264000000
O     3.069000000    -3.035000000     3.592000000
H     3.472000000    -2.334000000     3.081000000
H     3.782000000    -3.383000000     4.127000000
O     3.358000000     0.417000000    -3.413000000
H     3.638000000    -0.377000000    -2.957000000
H     3.031000000     0.105000000    -4.257000000
O     6.399000000    -4.147000000    -1.856000000
H     6.017000000    -3.829000000    -2.674000000
H     6.418000000    -3.378000000    -1.286000000
O    -6.269000000     2.966000000    -0.623000000
H    -6.600000000     2.909000000     0.273000000
H    -6.208000000     3.906000000    -0.796000000
O     0.796000000     1.520000000    -6.106000000
H     0.903000000     1.588000000    -5.157000000
H     0.235000000     0.754000000    -6.229000000
O     1.081000000    -1.318000000     4.255000000
H     1.542000000    -0.589000000     4.670000000
H     1.734000000    -2.015000000     4.202000000
O    -2.947000000    -3.435000000     0.503000000
H    -3.904000000    -3.440000000     0.489000000
H    -2.721000000    -2.873000000     1.245000000
O    -3.448000000     3.539000000    -2.662000000
H    -2.983000000     2.886000000    -3.185000000
H    -3.209000000     3.335000000    -1.758000000
O    -0.717000000     5.288000000     4.724000000
H    -0.901000000     4.874000000     3.881000000
H     0.232000000     5.218000000     4.824000000
O    -2.178000000     3.278000000    -0.323000000
H    -1.757000000     2.487000000    -0.659000000
H    -2.916000000     2.956000000     0.194000000
O    -0.756000000    -4.964000000     2.440000000
H    -1.377000000    -5.136000000     3.148000000
H    -0.879000000    -4.037000000     2.234000000
O    -2.123000000    -0.531000000    -4.722000000
H    -2.867000000    -1.117000000    -4.858000000
H    -2.097000000     0.010000000    -5.512000000
O     6.271000000     0.839000000     1.138000000
H     5.329000000     0.688000000     1.220000000
H     6.357000000     1.791000000     1.086000000
O    -0.044000000    -2.260000000     2.009000000
H     0.360000000    -1.801000000     2.745000000
H     0.341000000    -1.853000000     1.233000000
O    -4.232000000     1.952000000     1.125000000
H    -4.997000000     1.539000000     0.724000000
H    -4.301000000     1.733000000     2.054000000
O    -4.511000000     1.459000000     3.736000000
H    -3.605000000     1.448000000     4.045000000
H    -5.031000000     1.250000000     4.512000000
O     4.289000000    -0.507000000     3.936000000
H     5.219000000    -0.437000000     3.718000000
H     3.877000000     0.215000000     3.461000000
O    -2.078000000    -0.775000000     5.309000000
H    -1.197000000    -0.903000000     4.958000000
H    -1.941000000    -0.320000000     6.140000000
O    -7.643000000    -2.560000000    -0.646000000
H    -7.477000000    -1.617000000    -0.663000000
H    -8.431000000    -2.674000000    -1.177000000
O     4.989000000     2.117000000     5.314000000
H     5.203000000     2.851000000     5.890000000
H     5.271000000     1.342000000     5.799000000
O    -5.427000000    -3.977000000     0.712000000
H    -6.203000000    -3.642000000     0.262000000
H    -5.557000000    -4.925000000     0.740000000
O    -5.433000000    -1.616000000     2.257000000
H    -5.193000000    -2.426000000     1.807000000
H    -4.619000000    -1.318000000     2.663000000
O     0.106000000    -5.176000000    -3.733000000
H    -0.722000000    -4.698000000    -3.696000000
H    -0.015000000    -5.910000000    -3.130000000
O     2.718000000    -4.001000000    -1.858000000
H     3.350000000    -3.884000000    -2.568000000
H     1.919000000    -4.295000000    -2.294000000
O    -1.619000000     1.959000000     4.330000000
H    -1.436000000     2.488000000     3.554000000
H    -0.999000000     2.275000000     4.987000000
O    -5.644000000     0.819000000    -2.515000000
H    -6.041000000     1.529000000    -2.011000000
H    -4.938000000     0.493000000    -1.956000000
O     4.010000000    -2.986000000     0.296000000
H     3.389000000    -3.310000000    -0.357000000
H     3.842000000    -2.045000000     0.341000000
O    -3.261000000    -2.972000000    -4.598000000
H    -2.632000000    -2.918000000    -3.879000000
H    -4.116000000    -2.893000000    -4.176000000
