144
-2811.69268
O    -4.260000000    -5.470000000     2.815000000
H    -3.821000000    -5.615000000     3.653000000
H    -4.351000000    -6.346000000     2.438000000
O    -0.025000000     5.236000000     6.373000000
H     0.226000000     5.720000000     7.160000000
H     0.770000000     5.216000000     5.841000000
O     0.667000000     2.218000000     5.726000000
H     0.639000000     1.268000000     5.837000000
H     0.508000000     2.567000000     6.603000000
O    -4.629000000    -1.671000000    -4.784000000
H    -4.987000000    -2.160000000    -5.524000000
H    -4.135000000    -2.320000000    -4.283000000
O     6.836000000     5.111000000     1.136000000
H     6.055000000     4.598000000     1.346000000
H     7.453000000     4.904000000     1.838000000
O    -0.387000000    -5.155000000     5.263000000
H    -0.303000000    -4.897000000     4.345000000
H     0.427000000    -5.620000000     5.456000000
O    -1.123000000     7.178000000     1.905000000
H    -1.111000000     7.469000000     0.993000000
H    -1.622000000     6.362000000     1.891000000
O     6.881000000     2.747000000    -0.713000000
H     6.002000000     2.454000000    -0.952000000
H     6.884000000     3.683000000    -0.912000000
O     2.235000000    -2.166000000    -3.838000000
H     2.760000000    -2.456000000    -4.583000000
H     1.342000000    -2.115000000    -4.179000000
O    -4.652000000    -2.025000000     3.829000000
H    -5.047000000    -2.567000000     3.146000000
H    -5.387000000    -1.542000000     4.207000000
O    -0.567000000     3.252000000     3.129000000
H     0.151000000     3.248000000     2.496000000
H    -0.203000000     2.830000000     3.907000000
O     3.537000000    -0.282000000     3.864000000
H     3.443000000     0.663000000     3.746000000
H     3.797000000    -0.384000000     4.780000000
O    -2.439000000     4.609000000     1.758000000
H    -3.333000000     4.266000000     1.786000000
H    -1.941000000     4.025000000     2.331000000
O     2.900000000     5.431000000    -0.308000000
H     2.816000000     4.613000000     0.181000000
H     2.092000000     5.490000000    -0.818000000
O     0.351000000    -5.894000000     0.277000000
H     0.333000000    -5.712000000     1.217000000
H     0.805000000    -5.142000000    -0.103000000
O     4.257000000     0.453000000    -4.153000000
H     3.625000000    -0.150000000    -3.763000000
H     4.286000000     1.195000000    -3.549000000
O    -2.640000000     1.895000000    -3.439000000
H    -1.919000000     1.894000000    -4.069000000
H    -2.488000000     2.672000000    -2.901000000
O    -1.880000000    -2.782000000     3.857000000
H    -1.844000000    -2.715000000     4.811000000
H    -2.815000000    -2.751000000     3.651000000
O     4.423000000     3.464000000     2.061000000
H     3.914000000     3.183000000     1.300000000
H     4.201000000     2.830000000     2.744000000
O    -0.594000000     2.095000000    -5.284000000
H    -0.003000000     2.705000000    -5.725000000
H    -0.366000000     1.238000000    -5.645000000
O    -0.167000000    -5.593000000    -3.515000000
H    -0.482000000    -6.273000000    -2.920000000
H     0.035000000    -4.851000000    -2.945000000
O    -2.540000000    -5.999000000    -1.296000000
H    -1.711000000    -6.131000000    -0.835000000
H    -2.963000000    -6.857000000    -1.279000000
O     5.131000000    -1.472000000     1.937000000
H     5.864000000    -1.831000000     2.438000000
H     4.557000000    -1.084000000     2.598000000
O    -6.232000000    -3.436000000    -2.435000000
H    -5.892000000    -4.322000000    -2.557000000
H    -6.058000000    -3.237000000    -1.515000000
O     1.560000000     5.579000000     2.812000000
H     0.701000000     5.989000000     2.708000000
H     1.466000000     4.718000000     2.404000000
O    -2.200000000     3.323000000    -1.153000000
H    -1.386000000     2.934000000    -0.831000000
H    -2.868000000     3.026000000    -0.534000000
O     1.631000000     5.402000000    -3.941000000
H     1.434000000     5.888000000    -4.742000000
H     0.793000000     5.344000000    -3.483000000
O     4.679000000    -0.627000000    -0.890000000
H     4.354000000     0.248000000    -1.098000000
H     4.878000000    -0.592000000     0.046000000
O     0.497000000    -0.915000000     6.146000000
H     1.148000000    -1.586000000     6.352000000
H     0.187000000    -0.611000000     6.999000000
O    -0.110000000    -2.372000000    -5.347000000
H    -0.124000000    -1.832000000    -6.137000000
H    -0.941000000    -2.847000000    -5.367000000
O     4.326000000     2.006000000    -1.937000000
H     3.688000000     2.121000000    -1.233000000
H     4.128000000     2.707000000    -2.558000000
O     2.494000000    -2.794000000     3.009000000
H     2.535000000    -2.635000000     2.066000000
H     2.561000000    -1.924000000     3.402000000
O     0.225000000    -4.198000000     2.723000000
H     1.070000000    -3.810000000     2.951000000
H    -0.422000000    -3.577000000     3.058000000
O    -5.880000000    -0.033000000     1.428000000
H    -5.252000000     0.688000000     1.389000000
H    -6.482000000     0.210000000     2.132000000
O    -2.445000000     0.341000000     4.617000000
H    -2.306000000     0.816000000     3.798000000
H    -2.136000000    -0.546000000     4.435000000
O    -1.783000000    -4.752000000    -5.901000000
H    -2.591000000    -4.412000000    -5.515000000
H    -1.373000000    -5.252000000    -5.195000000
O     2.721000000     7.755000000     1.279000000
H     2.924000000     7.001000000     0.726000000
H     2.313000000     7.379000000     2.059000000
O    -6.666000000    -0.871000000    -2.175000000
H    -6.388000000    -1.769000000    -2.358000000
H    -5.854000000    -0.365000000    -2.176000000
O     2.589000000     6.304000000     5.245000000
H     3.493000000     6.540000000     5.038000000
H     2.203000000     6.071000000     4.400000000
O     2.746000000     2.310000000     4.088000000
H     2.017000000     2.141000000     4.685000000
H     2.375000000     2.876000000     3.411000000
O    -5.381000000    -2.363000000     0.053000000
H    -4.780000000    -1.676000000    -0.236000000
H    -5.930000000    -1.939000000     0.713000000
O    -0.610000000     5.692000000    -2.296000000
H    -1.327000000     5.512000000    -2.905000000
H    -0.664000000     4.991000000    -1.647000000
O    -3.223000000    -4.018000000    -3.361000000
H    -4.105000000    -4.385000000    -3.294000000
H    -2.709000000    -4.511000000    -2.721000000
O    -4.154000000     0.056000000    -2.045000000
H    -4.038000000    -0.694000000    -2.629000000
H    -3.510000000     0.696000000    -2.346000000
O     1.597000000    -3.981000000    -1.579000000
H     1.907000000    -3.473000000    -2.329000000
H     2.097000000    -4.796000000    -1.620000000
O    -5.901000000    -5.442000000     0.391000000
H    -5.338000000    -5.830000000     1.061000000
H    -5.608000000    -4.533000000     0.328000000
O     4.261000000     4.319000000    -3.725000000
H     4.357000000     4.028000000    -4.632000000
H     3.372000000     4.669000000    -3.678000000
O     2.011000000    -2.402000000     0.434000000
H     1.633000000    -2.905000000    -0.288000000
H     1.540000000    -1.569000000     0.418000000
