144
-2805.15852
O     2.004000000     1.097000000    -6.003000000
H     1.199000000     0.898000000    -5.525000000
H     1.742000000     1.096000000    -6.923000000
O     2.331000000    -1.512000000    -7.451000000
H     2.954000000    -0.936000000    -7.895000000
H     2.678000000    -1.602000000    -6.564000000
O    -3.037000000    -0.861000000    -3.599000000
H    -2.836000000    -0.686000000    -4.518000000
H    -3.903000000    -1.269000000    -3.617000000
O     3.667000000    -2.694000000    -5.058000000
H     3.566000000    -3.586000000    -5.391000000
H     2.911000000    -2.566000000    -4.485000000
O    -4.735000000     2.993000000    -2.037000000
H    -4.778000000     2.412000000    -1.277000000
H    -4.745000000     3.875000000    -1.665000000
O     6.088000000    -1.325000000    -4.731000000
H     5.644000000    -0.480000000    -4.672000000
H     5.391000000    -1.948000000    -4.937000000
O    -0.125000000     4.597000000     0.702000000
H     0.266000000     5.323000000     0.216000000
H    -0.409000000     3.982000000     0.026000000
O     4.567000000     4.388000000    -2.243000000
H     3.822000000     4.027000000    -1.761000000
H     4.425000000     4.108000000    -3.147000000
O    -1.314000000    -3.142000000    -3.327000000
H    -1.993000000    -3.675000000    -2.915000000
H    -1.749000000    -2.313000000    -3.528000000
O    -5.081000000    -1.848000000     1.912000000
H    -4.545000000    -1.054000000     1.921000000
H    -5.557000000    -1.807000000     1.083000000
O    -4.643000000     0.468000000     4.323000000
H    -3.889000000     0.692000000     4.868000000
H    -4.316000000     0.524000000     3.426000000
O    -3.484000000     1.531000000     6.809000000
H    -3.566000000     2.439000000     6.518000000
H    -3.671000000     1.563000000     7.747000000
O     4.638000000     1.201000000    -1.913000000
H     4.705000000     1.469000000    -2.830000000
H     3.996000000     1.802000000    -1.534000000
O    -1.474000000     2.863000000    -0.890000000
H    -2.275000000     3.384000000    -0.953000000
H    -1.758000000     1.965000000    -1.060000000
O    -2.896000000    -3.766000000     2.122000000
H    -3.710000000    -3.283000000     2.266000000
H    -2.938000000    -4.038000000     1.206000000
O     1.316000000     1.386000000     5.117000000
H     2.173000000     1.795000000     5.245000000
H     0.717000000     2.122000000     4.988000000
O     6.321000000    -3.846000000    -1.224000000
H     6.345000000    -2.889000000    -1.223000000
H     5.413000000    -4.063000000    -1.009000000
O     0.359000000    -2.671000000     1.772000000
H     0.149000000    -2.740000000     2.703000000
H     0.687000000    -1.778000000     1.665000000
O     3.897000000     4.107000000     1.583000000
H     4.843000000     4.116000000     1.734000000
H     3.577000000     3.381000000     2.118000000
O     5.531000000     0.407000000     0.663000000
H     6.455000000     0.521000000     0.885000000
H     5.483000000     0.609000000    -0.271000000
O    -2.522000000     4.985000000     5.608000000
H    -2.502000000     4.753000000     4.679000000
H    -3.390000000     4.713000000     5.904000000
O     2.464000000    -4.371000000     1.032000000
H     1.562000000    -4.077000000     0.908000000
H     2.945000000    -3.577000000     1.263000000
O    -6.432000000     1.490000000     6.039000000
H    -5.682000000     1.215000000     5.512000000
H    -6.353000000     2.443000000     6.089000000
O     2.678000000     3.173000000    -0.617000000
H     2.070000000     2.607000000    -0.141000000
H     3.037000000     3.756000000     0.051000000
O     3.968000000    -2.218000000     1.996000000
H     4.189000000    -1.408000000     1.536000000
H     3.638000000    -1.928000000     2.846000000
O     3.016000000     3.379000000     5.536000000
H     3.816000000     3.904000000     5.497000000
H     2.456000000     3.746000000     4.852000000
O     0.074000000    -2.075000000     4.724000000
H     0.566000000    -2.330000000     5.504000000
H    -0.460000000    -1.333000000     5.008000000
O    -4.633000000     1.101000000    -0.085000000
H    -5.381000000     0.540000000     0.118000000
H    -3.999000000     0.914000000     0.608000000
O    -5.886000000     4.405000000     1.114000000
H    -5.780000000     3.520000000     1.462000000
H    -6.652000000     4.752000000     1.572000000
O     6.698000000    -0.850000000    -1.996000000
H     6.601000000    -1.286000000    -2.842000000
H     6.039000000    -0.155000000    -2.008000000
O    -5.717000000    -2.446000000     4.610000000
H    -5.474000000    -2.027000000     3.785000000
H    -6.432000000    -1.909000000     4.951000000
O    -3.108000000    -5.259000000    -2.238000000
H    -2.788000000    -4.753000000    -1.491000000
H    -4.031000000    -5.016000000    -2.314000000
O    -0.463000000     3.772000000     3.453000000
H    -0.773000000     2.868000000     3.496000000
H    -0.578000000     4.022000000     2.536000000
O    -7.160000000     1.880000000     2.380000000
H    -7.693000000     1.162000000     2.039000000
H    -6.532000000     1.457000000     2.964000000
O    -0.401000000     0.601000000    -4.576000000
H    -0.407000000     0.127000000    -3.744000000
H    -0.717000000    -0.035000000    -5.217000000
O    -3.683000000     3.302000000     3.261000000
H    -2.923000000     2.776000000     3.509000000
H    -4.049000000     2.850000000     2.500000000
O    -1.556000000    -0.028000000     5.835000000
H    -2.207000000     0.602000000     6.145000000
H    -1.202000000     0.365000000     5.038000000
O     1.377000000    -4.534000000    -2.956000000
H     1.227000000    -5.139000000    -3.683000000
H     0.556000000    -4.049000000    -2.875000000
O     4.214000000     1.776000000     3.005000000
H     4.690000000     1.262000000     2.352000000
H     4.566000000     1.482000000     3.845000000
O     2.137000000     5.330000000     3.712000000
H     2.259000000     5.226000000     2.768000000
H     1.188000000     5.383000000     3.827000000
O    -3.101000000    -1.239000000     7.671000000
H    -2.272000000    -1.457000000     8.097000000
H    -2.929000000    -0.411000000     7.222000000
O    -1.554000000    -1.337000000    -6.176000000
H    -2.095000000    -2.126000000    -6.204000000
H    -0.970000000    -1.421000000    -6.930000000
O     3.576000000    -4.344000000    -1.400000000
H     3.137000000    -4.447000000    -0.555000000
H     2.893000000    -4.522000000    -2.047000000
O     4.183000000     1.872000000    -4.523000000
H     4.758000000     1.931000000    -5.286000000
H     3.341000000     1.591000000    -4.879000000
O    -6.776000000    -1.080000000     0.114000000
H    -7.600000000    -1.001000000     0.595000000
H    -6.832000000    -1.932000000    -0.318000000
O     2.981000000    -1.559000000     4.525000000
H     3.507000000    -0.880000000     4.946000000
H     2.081000000    -1.239000000     4.588000000
O    -1.637000000    -3.772000000    -0.557000000
H    -1.929000000    -2.868000000    -0.677000000
H    -0.918000000    -3.710000000     0.072000000
O    -0.019000000     3.503000000    -3.132000000
H    -0.412000000     3.106000000    -2.354000000
H    -0.248000000     2.908000000    -3.846000000
