144
-2796.91427
O    -4.827000000    -2.926000000    -3.579000000
H    -5.343000000    -3.117000000    -4.363000000
H    -5.248000000    -2.156000000    -3.198000000
O     2.077000000     0.448000000    -6.552000000
H     1.207000000     0.236000000    -6.212000000
H     1.947000000     0.546000000    -7.496000000
O     3.225000000    -2.234000000    -7.304000000
H     3.136000000    -1.517000000    -6.677000000
H     3.745000000    -2.893000000    -6.844000000
O    -2.545000000    -2.030000000    -4.946000000
H    -3.221000000    -1.378000000    -5.135000000
H    -2.909000000    -2.552000000    -4.232000000
O    -3.386000000     2.030000000    -2.072000000
H    -3.946000000     1.742000000    -1.351000000
H    -2.524000000     2.148000000    -1.674000000
O     5.477000000     3.356000000    -0.518000000
H     5.461000000     2.754000000     0.227000000
H     4.584000000     3.697000000    -0.568000000
O    -0.248000000    -3.732000000    -4.620000000
H    -0.661000000    -4.266000000    -5.299000000
H    -0.396000000    -2.829000000    -4.903000000
O    -5.585000000    -0.719000000     2.588000000
H    -4.783000000    -0.201000000     2.526000000
H    -5.733000000    -1.038000000     1.698000000
O    -3.713000000     0.231000000     5.223000000
H    -3.454000000    -0.614000000     4.854000000
H    -3.337000000     0.878000000     4.626000000
O    -4.308000000     2.889000000     6.737000000
H    -4.487000000     3.389000000     7.533000000
H    -4.565000000     3.473000000     6.024000000
O    -1.014000000     3.007000000     6.645000000
H    -1.965000000     3.108000000     6.614000000
H    -0.677000000     3.903000000     6.619000000
O     5.429000000     1.622000000    -2.520000000
H     4.888000000     2.044000000    -3.188000000
H     5.465000000     2.256000000    -1.805000000
O     0.036000000     2.853000000    -1.354000000
H    -0.655000000     3.440000000    -1.048000000
H     0.134000000     2.212000000    -0.651000000
O    -1.237000000    -2.743000000     2.491000000
H    -2.031000000    -2.232000000     2.651000000
H    -1.375000000    -3.557000000     2.975000000
O     3.370000000     4.378000000    -4.960000000
H     3.104000000     3.661000000    -4.383000000
H     2.968000000     4.168000000    -5.803000000
O     4.090000000    -1.899000000    -3.852000000
H     3.873000000    -2.613000000    -4.452000000
H     4.007000000    -2.284000000    -2.980000000
O     0.546000000    -3.281000000     0.174000000
H     0.621000000    -2.511000000    -0.390000000
H     0.106000000    -2.959000000     0.961000000
O    -1.416000000    -5.540000000     1.962000000
H    -2.218000000    -6.012000000     1.737000000
H    -1.450000000    -4.745000000     1.431000000
O    -2.270000000     4.277000000    -0.369000000
H    -2.466000000     3.910000000     0.494000000
H    -3.087000000     4.694000000    -0.643000000
O     4.841000000    -0.985000000     1.098000000
H     5.764000000    -0.838000000     1.305000000
H     4.805000000    -0.973000000     0.142000000
O    -0.388000000     4.163000000     3.266000000
H    -1.218000000     4.418000000     2.863000000
H    -0.593000000     3.363000000     3.750000000
O     3.401000000    -4.276000000     0.559000000
H     2.606000000    -3.872000000     0.212000000
H     3.156000000    -4.572000000     1.436000000
O    -6.164000000     1.532000000     5.116000000
H    -5.461000000     0.930000000     4.874000000
H    -5.821000000     2.011000000     5.871000000
O     2.800000000     3.572000000    -1.177000000
H     1.928000000     3.858000000    -0.906000000
H     2.640000000     2.984000000    -1.915000000
O     3.832000000    -1.633000000     3.481000000
H     4.077000000    -1.402000000     2.585000000
H     3.473000000    -0.825000000     3.847000000
O    -0.256000000    -1.516000000     6.306000000
H     0.635000000    -1.866000000     6.326000000
H    -0.152000000    -0.615000000     5.999000000
O    -4.796000000     1.081000000    -0.168000000
H    -5.379000000     0.322000000    -0.169000000
H    -4.124000000     0.865000000     0.478000000
O    -5.517000000     3.568000000     0.862000000
H    -6.310000000     3.426000000     1.380000000
H    -5.360000000     2.729000000     0.429000000
O     6.355000000    -0.850000000    -2.795000000
H     5.559000000    -1.189000000    -3.204000000
H     6.123000000     0.036000000    -2.518000000
O    -3.222000000    -4.932000000    -2.498000000
H    -3.973000000    -5.393000000    -2.872000000
H    -3.387000000    -4.009000000    -2.691000000
O     1.456000000     6.243000000     3.123000000
H     0.785000000     5.560000000     3.143000000
H     1.702000000     6.312000000     2.201000000
O    -8.494000000     0.098000000     2.690000000
H    -8.777000000    -0.669000000     2.192000000
H    -7.545000000    -0.003000000     2.767000000
O    -7.649000000     2.659000000     2.412000000
H    -7.139000000     2.448000000     3.193000000
H    -8.213000000     1.897000000     2.280000000
O    -0.844000000    -0.070000000    -5.855000000
H    -1.585000000    -0.561000000    -5.500000000
H    -0.911000000    -0.186000000    -6.802000000
O    -2.945000000     3.821000000     2.146000000
H    -3.075000000     2.924000000     2.454000000
H    -3.822000000     4.203000000     2.141000000
O     0.035000000     1.095000000     4.705000000
H    -0.213000000     1.867000000     5.215000000
H    -0.693000000     0.967000000     4.097000000
O     1.711000000    -5.133000000    -3.448000000
H     1.510000000    -6.020000000    -3.747000000
H     0.958000000    -4.611000000    -3.724000000
O     4.714000000     2.444000000     2.124000000
H     4.062000000     1.789000000     2.372000000
H     4.487000000     3.217000000     2.640000000
O    -2.618000000     0.646000000     7.931000000
H    -3.362000000     1.060000000     8.368000000
H    -2.792000000     0.766000000     6.997000000
O    -6.464000000    -3.312000000     3.541000000
H    -5.958000000    -2.523000000     3.347000000
H    -7.312000000    -2.984000000     3.840000000
O    -5.437000000    -4.163000000    -0.289000000
H    -5.573000000    -5.020000000     0.116000000
H    -4.487000000    -4.090000000    -0.380000000
O     5.540000000    -5.321000000    -1.239000000
H     5.010000000    -6.061000000    -1.534000000
H     5.150000000    -5.065000000    -0.403000000
O     3.999000000     1.660000000    -5.013000000
H     4.775000000     1.733000000    -5.569000000
H     3.411000000     1.081000000    -5.497000000
O    -6.275000000    -1.398000000    -0.162000000
H    -7.144000000    -1.357000000    -0.562000000
H    -6.007000000    -2.311000000    -0.264000000
O    -3.918000000    -3.048000000     5.348000000
H    -4.511000000    -3.456000000     4.718000000
H    -4.483000000    -2.492000000     5.885000000
O     2.690000000     1.054000000     3.797000000
H     1.765000000     0.845000000     3.929000000
H     2.957000000     1.482000000     4.611000000
O     0.772000000    -5.938000000    -0.752000000
H     1.655000000    -6.070000000    -1.097000000
H     0.749000000    -5.015000000    -0.499000000
O     1.307000000     2.891000000    -3.744000000
H     0.739000000     3.004000000    -2.982000000
H     0.791000000     2.361000000    -4.351000000
