144
-2820.21098
O     2.706000000    -5.356000000    -2.267000000
H     2.804000000    -6.088000000    -1.658000000
H     3.521000000    -5.352000000    -2.768000000
O    -4.005000000     3.287000000     3.099000000
H    -3.507000000     2.507000000     3.344000000
H    -4.754000000     2.948000000     2.608000000
O     0.293000000     4.307000000    -2.437000000
H     0.131000000     3.958000000    -1.561000000
H     0.485000000     3.536000000    -2.970000000
O    -2.951000000     3.496000000    -1.942000000
H    -2.806000000     3.961000000    -2.766000000
H    -2.937000000     2.570000000    -2.184000000
O    -1.480000000    -2.584000000     2.405000000
H    -1.701000000    -2.646000000     3.334000000
H    -0.876000000    -1.843000000     2.351000000
O    -6.552000000     2.680000000     4.736000000
H    -6.499000000     1.816000000     5.144000000
H    -6.779000000     2.500000000     3.823000000
O     3.521000000     1.591000000     4.238000000
H     4.023000000     1.274000000     4.988000000
H     4.145000000     1.584000000     3.512000000
O     7.647000000     0.036000000    -0.802000000
H     7.678000000     0.912000000    -0.417000000
H     8.103000000     0.125000000    -1.638000000
O    -0.086000000     3.246000000     2.625000000
H     0.650000000     3.570000000     3.145000000
H    -0.548000000     2.647000000     3.212000000
O     5.365000000     2.018000000     0.366000000
H     5.305000000     1.309000000     1.007000000
H     5.126000000     2.805000000     0.856000000
O    -4.508000000     1.593000000    -3.478000000
H    -4.358000000     1.495000000    -4.419000000
H    -5.338000000     2.067000000    -3.416000000
O    -6.186000000     4.814000000     1.165000000
H    -6.759000000     5.101000000     0.454000000
H    -5.541000000     4.250000000     0.739000000
O     0.923000000     2.192000000    -4.163000000
H     0.398000000     1.570000000    -4.668000000
H     1.631000000     2.444000000    -4.756000000
O     6.010000000    -1.938000000    -2.053000000
H     6.484000000    -1.271000000    -1.557000000
H     5.692000000    -2.550000000    -1.389000000
O     2.366000000    -2.817000000     4.469000000
H     1.506000000    -3.159000000     4.714000000
H     2.292000000    -1.871000000     4.595000000
O     0.229000000     0.859000000    -7.328000000
H     0.094000000     0.314000000    -8.103000000
H    -0.042000000     0.305000000    -6.595000000
O     4.369000000    -3.546000000     2.861000000
H     4.932000000    -2.847000000     3.194000000
H     3.479000000    -3.248000000     3.051000000
O    -0.257000000    -4.588000000     0.898000000
H    -0.610000000    -4.636000000     0.010000000
H    -0.515000000    -3.721000000     1.212000000
O    -4.785000000     3.089000000    -0.243000000
H    -4.211000000     3.414000000    -0.936000000
H    -4.478000000     2.197000000    -0.077000000
O     1.371000000    -0.708000000     7.211000000
H     1.166000000     0.128000000     7.629000000
H     1.385000000    -0.511000000     6.275000000
O     4.850000000     1.033000000    -4.737000000
H     5.126000000     1.362000000    -3.882000000
H     4.775000000     0.087000000    -4.617000000
O    -7.721000000     1.317000000    -1.082000000
H    -8.220000000     1.798000000    -0.422000000
H    -7.834000000     0.397000000    -0.846000000
O     1.219000000     0.076000000     4.671000000
H     1.932000000     0.686000000     4.482000000
H     0.434000000     0.520000000     4.352000000
O    -2.939000000    -1.042000000    -4.377000000
H    -3.484000000    -1.588000000    -3.811000000
H    -3.319000000    -1.149000000    -5.250000000
O     5.085000000    -3.581000000    -0.028000000
H     4.437000000    -3.512000000     0.673000000
H     4.959000000    -4.459000000    -0.386000000
O    -3.633000000     1.108000000     6.024000000
H    -4.122000000     0.950000000     6.832000000
H    -4.131000000     0.646000000     5.349000000
O    -4.401000000    -0.630000000    -1.836000000
H    -4.120000000     0.072000000    -2.423000000
H    -4.254000000    -0.280000000    -0.957000000
O     3.218000000     3.029000000    -5.230000000
H     3.794000000     3.665000000    -5.655000000
H     3.732000000     2.222000000    -5.203000000
O    -2.621000000    -2.154000000     4.819000000
H    -2.608000000    -3.084000000     5.042000000
H    -3.506000000    -1.998000000     4.491000000
O     5.780000000     1.955000000    -2.302000000
H     6.474000000     1.582000000    -1.759000000
H     5.191000000     2.381000000    -1.679000000
O    -0.408000000    -0.521000000    -5.146000000
H    -1.244000000    -0.663000000    -4.702000000
H     0.148000000    -1.240000000    -4.848000000
O    -1.416000000     1.272000000     4.355000000
H    -2.041000000     1.055000000     5.047000000
H    -1.847000000     0.993000000     3.547000000
O    -6.573000000     1.717000000     2.175000000
H    -7.444000000     1.664000000     1.781000000
H    -5.972000000     1.691000000     1.431000000
O    -1.330000000    -3.646000000    -4.020000000
H    -0.375000000    -3.635000000    -3.967000000
H    -1.595000000    -2.771000000    -3.735000000
O     3.075000000    -1.187000000    -7.015000000
H     3.538000000    -1.183000000    -6.177000000
H     3.185000000    -0.298000000    -7.353000000
O    -3.659000000     3.958000000     5.887000000
H    -3.802000000     3.024000000     5.737000000
H    -3.770000000     4.359000000     5.025000000
O    -4.832000000    -0.216000000     3.813000000
H    -5.631000000     0.120000000     3.407000000
H    -4.122000000     0.180000000     3.308000000
O    -2.228000000     5.690000000     3.037000000
H    -3.034000000     5.173000000     3.061000000
H    -1.542000000     5.054000000     2.833000000
O    -6.123000000    -1.407000000     0.587000000
H    -5.422000000    -0.787000000     0.389000000
H    -5.778000000    -1.938000000     1.305000000
O    -5.124000000    -3.132000000    -2.494000000
H    -5.088000000    -2.182000000    -2.387000000
H    -4.530000000    -3.472000000    -1.825000000
O    -0.065000000     2.698000000    -0.217000000
H    -0.238000000     1.761000000    -0.124000000
H     0.056000000     3.010000000     0.679000000
O     5.887000000     0.523000000     2.639000000
H     6.683000000     1.054000000     2.644000000
H     6.045000000    -0.152000000     3.299000000
O    -3.546000000    -4.211000000    -0.616000000
H    -2.796000000    -4.520000000    -1.124000000
H    -3.833000000    -4.979000000    -0.121000000
O    -4.338000000    -2.947000000     1.978000000
H    -4.259000000    -3.522000000     1.216000000
H    -3.435000000    -2.763000000     2.234000000
O     3.710000000     4.116000000    -1.771000000
H     2.948000000     4.632000000    -1.509000000
H     3.420000000     3.635000000    -2.545000000
O    -8.279000000    -1.696000000    -1.197000000
H    -7.563000000    -1.562000000    -0.576000000
H    -7.971000000    -2.400000000    -1.769000000
O     1.211000000    -3.301000000    -3.542000000
H     1.402000000    -4.003000000    -2.920000000
H     1.685000000    -3.548000000    -4.336000000
O     4.033000000    -1.386000000    -4.451000000
H     3.775000000    -2.277000000    -4.689000000
H     4.637000000    -1.500000000    -3.717000000
