144
-2814.45518
O     7.937000000    -2.516000000    -0.684000000
H     8.093000000    -2.781000000    -1.591000000
H     7.413000000    -1.719000000    -0.755000000
O     0.528000000     3.429000000     3.681000000
H    -0.175000000     2.784000000     3.752000000
H     0.075000000     4.265000000     3.570000000
O     0.753000000    -0.593000000    -3.272000000
H     1.208000000     0.248000000    -3.307000000
H     0.440000000    -0.659000000    -2.370000000
O    -3.101000000     3.759000000    -4.093000000
H    -2.715000000     4.457000000    -4.622000000
H    -2.349000000     3.272000000    -3.754000000
O    -5.858000000    -4.389000000     1.285000000
H    -5.407000000    -4.768000000     2.039000000
H    -5.967000000    -3.465000000     1.510000000
O    -0.873000000    -4.771000000     1.010000000
H    -1.137000000    -5.119000000     1.862000000
H    -1.634000000    -4.277000000     0.706000000
O    -3.258000000     4.691000000     2.660000000
H    -3.347000000     3.811000000     2.293000000
H    -2.844000000     5.201000000     1.964000000
O    -6.067000000    -0.294000000    -0.487000000
H    -6.147000000     0.029000000    -1.384000000
H    -5.201000000    -0.002000000    -0.203000000
O    -1.975000000     5.112000000     0.020000000
H    -2.735000000     5.245000000    -0.546000000
H    -1.269000000     4.870000000    -0.579000000
O     0.044000000     5.595000000    -2.139000000
H    -0.109000000     6.540000000    -2.140000000
H     0.993000000     5.506000000    -2.232000000
O    -2.961000000    -5.330000000    -1.350000000
H    -2.975000000    -5.747000000    -0.488000000
H    -3.065000000    -6.054000000    -1.967000000
O     2.694000000    -2.858000000     3.134000000
H     1.932000000    -2.712000000     3.694000000
H     2.877000000    -3.794000000     3.218000000
O    -4.125000000     3.192000000    -1.195000000
H    -3.715000000     2.895000000    -2.008000000
H    -4.128000000     2.419000000    -0.632000000
O     2.388000000    -2.959000000    -3.520000000
H     2.110000000    -2.051000000    -3.635000000
H     1.661000000    -3.375000000    -3.056000000
O    -3.667000000     5.915000000    -1.937000000
H    -2.902000000     6.014000000    -2.505000000
H    -3.967000000     5.020000000    -2.094000000
O    -6.436000000    -2.619000000    -4.566000000
H    -5.899000000    -1.937000000    -4.164000000
H    -5.805000000    -3.254000000    -4.905000000
O     5.868000000     0.185000000     2.326000000
H     6.767000000     0.422000000     2.556000000
H     5.324000000     0.731000000     2.894000000
O     5.149000000    -2.458000000     1.616000000
H     5.283000000    -1.512000000     1.562000000
H     4.206000000    -2.574000000     1.500000000
O     3.746000000     4.822000000    -0.644000000
H     4.220000000     4.027000000    -0.888000000
H     3.266000000     4.581000000     0.148000000
O    -2.511000000     0.864000000    -3.231000000
H    -2.035000000     0.050000000    -3.397000000
H    -1.827000000     1.505000000    -3.035000000
O     0.498000000    -7.031000000     0.787000000
H     1.339000000    -6.795000000     1.178000000
H    -0.004000000    -6.216000000     0.788000000
O     1.373000000     7.169000000     0.542000000
H     1.942000000     7.737000000     1.062000000
H     1.711000000     6.286000000     0.696000000
O    -0.434000000    -0.805000000     2.585000000
H     0.441000000    -0.988000000     2.245000000
H    -0.621000000     0.089000000     2.298000000
O     6.240000000    -3.525000000     4.147000000
H     5.925000000    -4.194000000     4.755000000
H     5.546000000    -3.451000000     3.491000000
O     1.884000000     2.071000000    -3.418000000
H     2.440000000     2.068000000    -4.197000000
H     1.758000000     2.998000000    -3.217000000
O     4.628000000     3.072000000     1.689000000
H     5.493000000     3.361000000     1.980000000
H     4.738000000     2.890000000     0.756000000
O    -2.653000000    -2.194000000     2.932000000
H    -1.805000000    -1.752000000     2.909000000
H    -2.738000000    -2.596000000     2.067000000
O    -2.696000000    -3.141000000    -2.845000000
H    -2.702000000    -3.857000000    -2.209000000
H    -3.086000000    -2.402000000    -2.377000000
O    -6.262000000     4.908000000    -0.824000000
H    -5.567000000     4.441000000    -1.287000000
H    -6.044000000     4.807000000     0.102000000
O     2.281000000     4.687000000     1.749000000
H     2.932000000     3.989000000     1.828000000
H     1.691000000     4.549000000     2.490000000
O    -3.868000000     1.924000000     2.282000000
H    -3.839000000     1.419000000     1.469000000
H    -4.799000000     1.978000000     2.497000000
O     5.952000000     1.591000000     4.760000000
H     6.008000000     2.297000000     5.404000000
H     5.053000000     1.271000000     4.833000000
O    -5.967000000    -1.595000000     3.421000000
H    -5.146000000    -1.115000000     3.532000000
H    -6.157000000    -1.950000000     4.289000000
O    -5.122000000    -0.550000000    -3.329000000
H    -4.454000000    -0.115000000    -3.859000000
H    -4.692000000    -0.715000000    -2.490000000
O    -4.351000000    -4.211000000    -4.804000000
H    -3.769000000    -4.921000000    -5.077000000
H    -3.834000000    -3.704000000    -4.179000000
O     5.130000000     0.442000000    -2.988000000
H     4.739000000     0.857000000    -3.757000000
H     5.084000000    -0.496000000    -3.173000000
O     3.069000000     1.908000000     3.760000000
H     2.189000000     2.258000000     3.621000000
H     3.587000000     2.271000000     3.041000000
O    -3.689000000    -3.190000000     0.492000000
H    -3.690000000    -2.542000000    -0.213000000
H    -4.592000000    -3.505000000     0.529000000
O     5.912000000    -4.501000000     0.046000000
H     5.738000000    -3.776000000     0.646000000
H     6.547000000    -4.149000000    -0.577000000
O     0.772000000    -4.170000000    -1.844000000
H     0.579000000    -5.081000000    -2.065000000
H     0.677000000    -4.128000000    -0.893000000
O     6.499000000    -0.300000000    -0.660000000
H     5.861000000    -0.216000000    -1.369000000
H     5.987000000    -0.174000000     0.139000000
O    -7.724000000    -0.503000000     1.727000000
H    -7.208000000    -0.285000000     0.950000000
H    -7.127000000    -1.012000000     2.275000000
O    -1.607000000     1.730000000     4.053000000
H    -2.294000000     1.831000000     3.394000000
H    -1.985000000     1.138000000     4.703000000
O    -0.815000000     3.023000000    -2.960000000
H    -0.409000000     2.863000000    -3.812000000
H    -0.438000000     3.852000000    -2.667000000
O    -1.215000000    -1.895000000    -4.756000000
H    -1.410000000    -2.536000000    -4.073000000
H    -0.577000000    -1.304000000    -4.355000000
O     5.221000000     2.743000000    -1.115000000
H     5.976000000     3.288000000    -1.334000000
H     5.325000000     1.961000000    -1.657000000
O     4.923000000    -2.268000000    -2.846000000
H     4.027000000    -2.603000000    -2.839000000
H     5.456000000    -3.015000000    -3.121000000
O     3.214000000    -0.672000000     4.707000000
H     3.050000000    -1.370000000     4.073000000
H     2.862000000     0.116000000     4.293000000
