144
-2836.10176
O     5.403000000    -2.044000000    -3.618000000
H     5.487000000    -1.152000000    -3.281000000
H     4.629000000    -2.395000000    -3.178000000
O     2.648000000     3.896000000     3.848000000
H     2.045000000     4.241000000     4.507000000
H     2.090000000     3.402000000     3.248000000
O    -2.411000000     4.732000000     0.614000000
H    -1.510000000     4.507000000     0.847000000
H    -2.843000000     4.890000000     1.454000000
O    -4.620000000     0.672000000    -1.627000000
H    -3.793000000     0.392000000    -2.020000000
H    -4.477000000     1.590000000    -1.398000000
O    -1.459000000    -4.330000000     0.056000000
H    -1.780000000    -5.086000000    -0.436000000
H    -2.251000000    -3.880000000     0.349000000
O     5.921000000    -4.110000000     0.648000000
H     6.448000000    -3.410000000     0.264000000
H     5.016000000    -3.839000000     0.497000000
O     0.555000000    -5.326000000    -3.210000000
H     1.124000000    -4.613000000    -3.501000000
H     0.078000000    -5.588000000    -3.997000000
O    -2.077000000     3.707000000    -3.189000000
H    -1.144000000     3.539000000    -3.054000000
H    -2.510000000     3.243000000    -2.473000000
O     0.835000000    -4.610000000     3.680000000
H     1.697000000    -4.664000000     3.268000000
H     0.268000000    -5.141000000     3.121000000
O    -0.047000000    -2.928000000     5.545000000
H    -0.930000000    -2.677000000     5.274000000
H     0.334000000    -3.338000000     4.768000000
O     0.459000000     2.384000000     6.908000000
H     0.311000000     1.604000000     6.373000000
H    -0.340000000     2.474000000     7.427000000
O    -1.764000000     0.995000000     4.399000000
H    -1.114000000     0.421000000     4.805000000
H    -2.593000000     0.742000000     4.806000000
O     5.061000000     2.636000000    -0.134000000
H     5.444000000     3.498000000    -0.294000000
H     4.489000000     2.484000000    -0.886000000
O    -5.608000000    -0.247000000     0.948000000
H    -5.167000000    -0.009000000     0.132000000
H    -5.579000000     0.551000000     1.477000000
O     3.546000000    -0.537000000     4.539000000
H     3.598000000    -1.304000000     3.969000000
H     4.036000000    -0.787000000     5.323000000
O    -3.008000000    -2.475000000     4.322000000
H    -3.200000000    -1.561000000     4.535000000
H    -3.038000000    -2.928000000     5.165000000
O     1.759000000     4.146000000    -5.238000000
H     1.693000000     4.413000000    -4.321000000
H     1.731000000     3.189000000    -5.212000000
O     0.666000000    -0.126000000     5.739000000
H     0.286000000    -0.930000000     6.094000000
H     1.462000000    -0.413000000     5.292000000
O    -0.857000000    -2.789000000    -4.621000000
H    -1.471000000    -2.764000000    -3.887000000
H    -1.147000000    -3.532000000    -5.150000000
O    -0.907000000     1.855000000    -6.069000000
H    -0.515000000     1.215000000    -6.663000000
H    -0.421000000     1.753000000    -5.251000000
O     0.224000000     4.645000000     1.256000000
H     0.696000000     4.688000000     0.424000000
H     0.587000000     3.877000000     1.698000000
O     3.685000000     2.383000000    -2.548000000
H     3.908000000     2.937000000    -3.296000000
H     2.950000000     1.851000000    -2.855000000
O     0.191000000     6.268000000    -5.012000000
H     0.045000000     6.556000000    -5.913000000
H     0.583000000     5.399000000    -5.100000000
O    -4.563000000    -4.274000000     2.361000000
H    -4.402000000    -3.641000000     3.060000000
H    -4.213000000    -3.856000000     1.574000000
O     5.979000000     0.729000000    -2.719000000
H     5.317000000     1.412000000    -2.832000000
H     5.895000000     0.463000000    -1.804000000
O     3.327000000    -4.690000000     2.991000000
H     3.843000000    -4.248000000     3.666000000
H     3.849000000    -5.458000000     2.756000000
O     1.263000000    -5.419000000    -0.677000000
H     1.073000000    -5.296000000    -1.607000000
H     0.604000000    -4.891000000    -0.226000000
O    -4.049000000     3.180000000    -0.992000000
H    -4.806000000     3.752000000    -1.116000000
H    -3.328000000     3.776000000    -0.790000000
O     4.999000000    -0.707000000    -0.480000000
H     4.246000000    -1.297000000    -0.446000000
H     4.890000000    -0.134000000     0.279000000
O     3.690000000     0.546000000    -5.034000000
H     2.780000000     0.492000000    -4.743000000
H     3.985000000    -0.364000000    -5.070000000
O     3.593000000    -3.081000000     0.188000000
H     2.847000000    -3.382000000     0.706000000
H     3.471000000    -3.490000000    -0.668000000
O    -4.086000000     0.201000000     5.226000000
H    -4.961000000    -0.185000000     5.175000000
H    -4.176000000     0.916000000     5.856000000
O    -4.363000000    -2.966000000    -0.149000000
H    -5.090000000    -3.302000000    -0.673000000
H    -4.612000000    -2.065000000     0.056000000
O     1.561000000    -1.701000000    -4.432000000
H     1.406000000    -0.807000000    -4.127000000
H     0.686000000    -2.057000000    -4.584000000
O    -2.523000000     0.667000000    -3.538000000
H    -2.187000000    -0.177000000    -3.235000000
H    -2.024000000     0.852000000    -4.333000000
O     1.264000000     4.903000000    -1.346000000
H     1.039000000     4.032000000    -1.675000000
H     2.200000000     4.850000000    -1.152000000
O     3.146000000    -3.054000000    -2.457000000
H     3.266000000    -3.940000000    -2.801000000
H     2.535000000    -2.641000000    -3.068000000
O     3.432000000     1.222000000     1.686000000
H     3.980000000     0.888000000     2.396000000
H     4.003000000     1.818000000     1.202000000
O     1.126000000     2.406000000     2.096000000
H     1.940000000     1.905000000     2.145000000
H     0.481000000     1.783000000     1.760000000
O     1.085000000     0.312000000    -7.362000000
H     1.621000000     0.875000000    -7.921000000
H     1.005000000    -0.506000000    -7.854000000
O     0.522000000     7.519000000    -2.639000000
H     0.565000000     6.891000000    -1.917000000
H     0.446000000     6.976000000    -3.424000000
O    -3.842000000     4.664000000     2.939000000
H    -4.295000000     5.306000000     3.486000000
H    -3.096000000     4.382000000     3.468000000
O    -4.831000000     2.365000000     1.732000000
H    -4.569000000     3.109000000     2.275000000
H    -4.168000000     2.326000000     1.043000000
O    -2.260000000    -2.583000000    -2.151000000
H    -2.971000000    -2.827000000    -1.559000000
H    -1.463000000    -2.837000000    -1.686000000
O    -3.028000000     6.130000000    -3.927000000
H    -3.671000000     5.964000000    -4.615000000
H    -2.539000000     5.310000000    -3.852000000
O    -3.756000000     6.422000000    -1.110000000
H    -3.038000000     5.794000000    -1.025000000
H    -3.621000000     6.826000000    -1.966000000
O    -1.752000000     3.861000000     4.277000000
H    -0.842000000     4.151000000     4.232000000
H    -1.697000000     2.908000000     4.352000000
O     1.858000000    -3.198000000    -6.793000000
H     1.696000000    -2.641000000    -6.032000000
H     2.417000000    -2.669000000    -7.363000000
