144
-2816.57535
O     3.053000000    -2.048000000     4.627000000
H     2.291000000    -2.394000000     5.091000000
H     3.032000000    -2.482000000     3.774000000
O    -1.120000000     3.322000000     3.966000000
H    -0.281000000     3.683000000     3.679000000
H    -0.943000000     2.969000000     4.838000000
O    -2.922000000     0.897000000    -0.194000000
H    -2.099000000     0.411000000    -0.241000000
H    -3.177000000     0.849000000     0.727000000
O     4.410000000     4.392000000    -2.050000000
H     3.576000000     4.819000000    -2.241000000
H     4.270000000     3.475000000    -2.285000000
O     1.009000000    -6.280000000     4.132000000
H     1.894000000    -5.922000000     4.056000000
H     1.130000000    -7.129000000     4.556000000
O    -2.241000000     4.732000000    -4.746000000
H    -2.482000000     3.912000000    -4.316000000
H    -3.029000000     4.994000000    -5.222000000
O     0.852000000     0.006000000     4.916000000
H     0.423000000     0.725000000     5.379000000
H     1.212000000    -0.545000000     5.611000000
O     4.499000000     3.082000000     2.867000000
H     4.005000000     2.267000000     2.957000000
H     4.436000000     3.299000000     1.937000000
O     1.473000000     5.977000000     3.189000000
H     1.948000000     6.635000000     3.696000000
H     1.573000000     5.169000000     3.692000000
O     1.684000000     5.844000000    -5.340000000
H     0.908000000     5.958000000    -5.888000000
H     2.201000000     6.636000000    -5.490000000
O    -1.399000000     7.398000000     1.096000000
H    -2.103000000     6.749000000     1.088000000
H    -0.596000000     6.881000000     1.038000000
O    -0.534000000     2.289000000     6.185000000
H    -1.434000000     2.039000000     6.391000000
H    -0.244000000     2.790000000     6.947000000
O     2.282000000     7.682000000    -0.678000000
H     1.536000000     7.111000000    -0.494000000
H     2.697000000     7.293000000    -1.448000000
O    -0.442000000     2.671000000    -4.762000000
H    -0.572000000     3.619000000    -4.730000000
H     0.179000000     2.490000000    -4.057000000
O     3.238000000     3.434000000    -5.745000000
H     2.700000000     4.207000000    -5.573000000
H     4.136000000     3.764000000    -5.748000000
O    -1.447000000    -0.085000000    -5.529000000
H    -1.306000000     0.709000000    -5.014000000
H    -1.641000000    -0.760000000    -4.879000000
O     0.608000000     5.633000000     0.579000000
H     0.945000000     4.917000000     0.041000000
H     0.977000000     5.474000000     1.448000000
O    -2.861000000    -3.170000000    -2.263000000
H    -3.364000000    -3.332000000    -1.464000000
H    -2.842000000    -2.217000000    -2.345000000
O     3.459000000     3.440000000     0.505000000
H     3.961000000     3.977000000    -0.108000000
H     2.622000000     3.294000000     0.064000000
O    -2.601000000    -0.413000000    -2.647000000
H    -2.092000000     0.174000000    -2.088000000
H    -3.256000000     0.153000000    -3.055000000
O    -3.634000000    -3.958000000     2.945000000
H    -3.070000000    -4.698000000     3.169000000
H    -4.512000000    -4.336000000     2.883000000
O    -5.171000000    -2.228000000     5.586000000
H    -5.023000000    -3.160000000     5.744000000
H    -4.390000000    -1.939000000     5.113000000
O    -2.902000000     6.612000000    -1.534000000
H    -2.147000000     6.093000000    -1.810000000
H    -2.561000000     7.502000000    -1.443000000
O     4.906000000     0.638000000    -0.184000000
H     4.435000000     0.285000000     0.572000000
H     4.368000000     1.373000000    -0.479000000
O    -3.275000000     1.807000000     2.813000000
H    -3.872000000     1.870000000     3.558000000
H    -2.420000000     2.047000000     3.170000000
O    -2.144000000    -5.796000000     4.256000000
H    -2.388000000    -6.233000000     5.072000000
H    -1.239000000    -5.517000000     4.394000000
O    -0.923000000    -2.886000000    -4.716000000
H    -0.621000000    -3.707000000    -5.104000000
H    -1.663000000    -3.139000000    -4.165000000
O     4.149000000    -1.076000000     1.646000000
H     3.621000000    -1.869000000     1.559000000
H     4.878000000    -1.335000000     2.210000000
O     4.180000000    -0.955000000    -2.964000000
H     4.413000000    -0.852000000    -2.041000000
H     3.467000000    -1.594000000    -2.961000000
O     2.646000000    -3.428000000     2.332000000
H     3.349000000    -4.064000000     2.201000000
H     1.892000000    -3.808000000     1.880000000
O    -4.281000000    -3.443000000     0.162000000
H    -4.973000000    -2.783000000     0.120000000
H    -4.082000000    -3.522000000     1.094000000
O     3.620000000     0.840000000    -5.697000000
H     4.526000000     0.744000000    -5.404000000
H     3.451000000     1.781000000    -5.649000000
O    -5.236000000    -0.547000000     2.235000000
H    -5.717000000    -0.031000000     2.882000000
H    -4.569000000    -1.008000000     2.744000000
O    -3.082000000     3.522000000    -1.016000000
H    -3.149000000     2.642000000    -0.644000000
H    -3.159000000     3.389000000    -1.961000000
O     1.892000000     5.365000000    -2.705000000
H     1.976000000     5.206000000    -3.645000000
H     1.445000000     4.588000000    -2.369000000
O     2.107000000    -2.471000000    -4.369000000
H     1.422000000    -3.139000000    -4.392000000
H     1.655000000    -1.656000000    -4.584000000
O     2.694000000     0.971000000     3.364000000
H     2.001000000     0.645000000     3.939000000
H     3.012000000     0.192000000     2.907000000
O    -0.163000000    -6.693000000    -0.320000000
H    -0.802000000    -6.234000000    -0.864000000
H    -0.623000000    -6.858000000     0.503000000
O     1.912000000     3.694000000     4.583000000
H     1.985000000     3.646000000     5.536000000
H     2.326000000     2.890000000     4.270000000
O     0.711000000     2.725000000    -7.360000000
H     0.286000000     2.630000000    -6.508000000
H     1.521000000     3.199000000    -7.172000000
O    -0.485000000     6.865000000    -3.339000000
H    -1.058000000     6.188000000    -3.700000000
H     0.342000000     6.414000000    -3.170000000
O     1.124000000    -0.615000000    -6.470000000
H     0.325000000    -0.094000000    -6.387000000
H     1.812000000    -0.058000000    -6.104000000
O    -3.088000000    -1.480000000     3.851000000
H    -2.149000000    -1.299000000     3.879000000
H    -3.152000000    -2.355000000     3.468000000
O    -1.944000000    -5.624000000    -2.070000000
H    -2.189000000    -4.704000000    -2.171000000
H    -2.777000000    -6.082000000    -1.959000000
O    -6.082000000    -1.214000000    -0.175000000
H    -5.466000000    -0.672000000    -0.669000000
H    -5.816000000    -1.106000000     0.738000000
O    -2.686000000     5.017000000     1.251000000
H    -2.126000000     4.315000000     1.582000000
H    -2.751000000     4.849000000     0.311000000
O     3.741000000     1.867000000    -2.625000000
H     2.809000000     2.011000000    -2.794000000
H     3.881000000     0.942000000    -2.826000000
O    -1.388000000    -7.375000000     1.926000000
H    -1.933000000    -6.822000000     2.485000000
H    -1.526000000    -8.262000000     2.258000000
