144
-2832.66555
O     3.784000000    -3.867000000    -1.919000000
H     4.112000000    -3.760000000    -2.812000000
H     3.000000000    -3.319000000    -1.885000000
O     1.194000000    -7.988000000     2.570000000
H     0.599000000    -8.221000000     1.857000000
H     0.714000000    -7.334000000     3.078000000
O     2.127000000    -3.125000000     3.312000000
H     2.846000000    -3.581000000     3.749000000
H     2.354000000    -3.156000000     2.382000000
O    -4.370000000    -3.038000000    -0.378000000
H    -4.683000000    -2.805000000     0.495000000
H    -3.576000000    -2.515000000    -0.495000000
O    -0.514000000     3.164000000     3.896000000
H    -0.395000000     3.798000000     4.603000000
H    -0.288000000     2.321000000     4.289000000
O    -3.725000000     0.674000000    -0.073000000
H    -2.985000000     1.056000000     0.400000000
H    -4.314000000     0.365000000     0.615000000
O    -5.243000000    -5.758000000     0.814000000
H    -5.617000000    -6.596000000     1.088000000
H    -4.940000000    -5.354000000     1.627000000
O     3.351000000     6.132000000    -3.118000000
H     3.819000000     6.087000000    -3.952000000
H     3.528000000     7.015000000    -2.792000000
O     6.676000000     3.578000000    -2.237000000
H     5.767000000     3.560000000    -1.938000000
H     6.898000000     2.659000000    -2.383000000
O    -0.486000000     0.676000000     5.264000000
H    -0.095000000     0.208000000     6.002000000
H    -1.272000000     0.174000000     5.051000000
O     4.920000000     6.658000000     0.453000000
H     4.305000000     6.122000000    -0.047000000
H     5.784000000     6.354000000     0.176000000
O    -0.883000000     6.905000000     3.865000000
H    -1.063000000     7.809000000     3.605000000
H    -0.883000000     6.415000000     3.043000000
O    -2.309000000    -3.862000000    -6.094000000
H    -2.111000000    -4.797000000    -6.048000000
H    -2.694000000    -3.656000000    -5.243000000
O    -0.354000000     6.530000000    -0.285000000
H     0.039000000     5.864000000     0.279000000
H    -0.026000000     6.325000000    -1.161000000
O     0.798000000     2.818000000    -4.253000000
H     0.123000000     3.490000000    -4.162000000
H     1.086000000     2.643000000    -3.357000000
O     0.539000000    -5.491000000    -1.305000000
H    -0.254000000    -5.917000000    -0.979000000
H     0.397000000    -4.559000000    -1.137000000
O    -2.019000000    -0.263000000    -5.230000000
H    -1.140000000    -0.188000000    -5.601000000
H    -1.963000000    -1.004000000    -4.627000000
O     0.663000000     5.061000000     2.052000000
H     1.165000000     4.483000000     1.477000000
H     0.198000000     4.468000000     2.641000000
O    -2.969000000    -3.183000000    -3.368000000
H    -3.891000000    -3.437000000    -3.412000000
H    -2.964000000    -2.390000000    -2.832000000
O     3.811000000     4.504000000    -0.668000000
H     3.711000000     4.804000000    -1.571000000
H     2.948000000     4.163000000    -0.432000000
O    -2.606000000    -0.832000000    -2.013000000
H    -3.076000000    -0.290000000    -1.380000000
H    -1.687000000    -0.752000000    -1.760000000
O    -0.742000000    -8.539000000     0.657000000
H    -0.622000000    -8.936000000    -0.206000000
H    -1.124000000    -7.681000000     0.474000000
O    -0.348000000    -3.084000000     4.715000000
H     0.351000000    -3.032000000     4.063000000
H    -0.016000000    -3.695000000     5.374000000
O     5.104000000     2.451000000     0.813000000
H     4.780000000     1.624000000     0.458000000
H     4.686000000     3.124000000     0.276000000
O     3.354000000    -3.562000000     0.982000000
H     3.494000000    -4.014000000     0.150000000
H     4.234000000    -3.341000000     1.286000000
O    -2.652000000     3.063000000     1.850000000
H    -2.521000000     2.975000000     2.794000000
H    -1.785000000     3.279000000     1.506000000
O    -0.803000000    -6.659000000     4.431000000
H    -1.650000000    -7.080000000     4.580000000
H    -0.232000000    -7.026000000     5.106000000
O    -0.267000000    -3.602000000    -3.412000000
H    -0.230000000    -4.556000000    -3.489000000
H    -1.170000000    -3.379000000    -3.640000000
O     3.532000000     0.030000000     0.474000000
H     2.677000000     0.147000000     0.889000000
H     3.333000000    -0.350000000    -0.382000000
O     3.881000000    -0.759000000    -2.103000000
H     4.563000000    -1.218000000    -2.592000000
H     3.075000000    -0.945000000    -2.585000000
O    -3.490000000     2.236000000     4.484000000
H    -2.616000000     2.457000000     4.806000000
H    -3.932000000     3.081000000     4.396000000
O    -4.317000000    -5.307000000     3.290000000
H    -4.238000000    -5.325000000     4.244000000
H    -3.416000000    -5.221000000     2.977000000
O     3.718000000     1.897000000    -5.015000000
H     4.093000000     2.186000000    -4.183000000
H     2.893000000     2.378000000    -5.085000000
O    -3.889000000    -0.089000000     2.689000000
H    -3.501000000     0.712000000     3.042000000
H    -3.573000000    -0.783000000     3.267000000
O     0.870000000     5.362000000    -2.476000000
H     1.653000000     5.843000000    -2.743000000
H     1.153000000     4.449000000    -2.430000000
O     1.740000000    -1.758000000    -3.671000000
H     1.321000000    -2.594000000    -3.874000000
H     1.378000000    -1.147000000    -4.313000000
O     4.150000000    -0.511000000     3.787000000
H     3.845000000    -0.835000000     2.940000000
H     5.097000000    -0.420000000     3.682000000
O     2.351000000     7.094000000     4.036000000
H     1.717000000     6.961000000     3.331000000
H     2.212000000     6.353000000     4.626000000
O    -1.740000000    -5.957000000     0.407000000
H    -2.461000000    -5.713000000    -0.174000000
H    -1.777000000    -5.315000000     1.116000000
O    -0.332000000     6.965000000    -4.282000000
H     0.014000000     6.583000000    -5.089000000
H    -0.108000000     6.330000000    -3.602000000
O     0.749000000     0.191000000    -5.382000000
H     0.623000000     1.092000000    -5.084000000
H     0.694000000     0.244000000    -6.336000000
O    -2.316000000    -1.306000000     4.794000000
H    -2.822000000    -1.830000000     5.414000000
H    -1.615000000    -1.890000000     4.503000000
O    -3.371000000    -5.228000000    -1.561000000
H    -3.273000000    -4.694000000    -2.349000000
H    -3.830000000    -4.660000000    -0.942000000
O    -5.885000000    -1.805000000     1.956000000
H    -6.525000000    -1.754000000     2.666000000
H    -5.275000000    -1.088000000     2.133000000
O    -3.945000000     4.837000000     0.107000000
H    -3.464000000     4.422000000     0.823000000
H    -4.242000000     4.108000000    -0.437000000
O     3.049000000     2.419000000     4.481000000
H     3.031000000     1.551000000     4.883000000
H     2.689000000     2.284000000     3.604000000
O     4.044000000     2.209000000    -2.208000000
H     3.145000000     2.482000000    -2.023000000
H     4.009000000     1.253000000    -2.205000000
O    -1.856000000    -4.644000000     2.798000000
H    -1.480000000    -3.928000000     3.309000000
H    -1.583000000    -5.437000000     3.259000000
