144
-2790.55549
O     3.221000000    -3.673000000     5.649000000
H     2.985000000    -3.467000000     4.744000000
H     3.889000000    -4.354000000     5.573000000
O    -4.701000000     0.682000000     3.964000000
H    -5.434000000     0.533000000     3.366000000
H    -4.116000000    -0.061000000     3.815000000
O    -2.376000000     2.847000000    -4.639000000
H    -2.460000000     2.307000000    -5.425000000
H    -2.568000000     2.250000000    -3.916000000
O     1.947000000     4.923000000     2.206000000
H     1.554000000     5.189000000     1.375000000
H     1.742000000     3.991000000     2.281000000
O    -1.784000000    -2.506000000    -0.227000000
H    -1.468000000    -3.408000000    -0.159000000
H    -1.019000000    -1.969000000    -0.023000000
O    -4.024000000    -1.289000000    -0.447000000
H    -4.603000000    -1.807000000    -1.006000000
H    -3.240000000    -1.830000000    -0.348000000
O    -0.965000000    -1.042000000     5.135000000
H    -0.023000000    -0.975000000     5.292000000
H    -1.155000000    -1.976000000     5.214000000
O     6.418000000    -4.942000000    -1.260000000
H     5.858000000    -4.193000000    -1.465000000
H     7.308000000    -4.622000000    -1.405000000
O    -6.539000000     0.150000000     1.988000000
H    -6.582000000    -0.316000000     1.153000000
H    -7.452000000     0.224000000     2.267000000
O     3.292000000    -2.488000000     2.812000000
H     3.032000000    -2.584000000     1.896000000
H     4.183000000    -2.836000000     2.845000000
O    -0.085000000     6.182000000     0.334000000
H    -0.933000000     6.054000000     0.759000000
H     0.210000000     7.039000000     0.640000000
O     0.034000000    -5.596000000     2.721000000
H    -0.301000000    -6.483000000     2.588000000
H     0.723000000    -5.697000000     3.378000000
O     5.063000000    -2.573000000    -1.677000000
H     4.107000000    -2.621000000    -1.665000000
H     5.277000000    -1.907000000    -1.023000000
O     2.486000000    -0.211000000     3.789000000
H     3.094000000     0.349000000     3.306000000
H     2.738000000    -1.102000000     3.545000000
O    -5.520000000     3.878000000     1.868000000
H    -4.738000000     3.559000000     2.320000000
H    -5.337000000     3.730000000     0.940000000
O    -3.380000000     3.164000000     3.434000000
H    -2.446000000     3.269000000     3.613000000
H    -3.487000000     2.228000000     3.262000000
O    -0.645000000     3.346000000     3.461000000
H    -0.580000000     2.905000000     4.308000000
H     0.043000000     2.947000000     2.929000000
O    -1.388000000     5.748000000    -3.927000000
H    -1.185000000     4.841000000    -3.699000000
H    -2.345000000     5.787000000    -3.925000000
O    -1.937000000     6.064000000     2.108000000
H    -1.906000000     6.676000000     2.843000000
H    -2.018000000     5.203000000     2.517000000
O    -5.223000000     6.105000000    -2.002000000
H    -5.202000000     5.214000000    -1.654000000
H    -4.756000000     6.629000000    -1.352000000
O    -0.194000000    -5.089000000    -0.116000000
H     0.071000000    -5.205000000     0.797000000
H    -0.847000000    -5.773000000    -0.264000000
O    -4.360000000     1.209000000    -2.044000000
H    -3.887000000     0.778000000    -2.756000000
H    -4.290000000     0.602000000    -1.308000000
O     1.981000000     2.490000000     3.307000000
H     2.518000000     3.117000000     3.791000000
H     2.136000000     1.653000000     3.744000000
O    -0.775000000     1.722000000     5.693000000
H    -1.109000000     0.832000000     5.586000000
H     0.139000000     1.605000000     5.953000000
O    -1.792000000    -2.199000000    -3.199000000
H    -2.036000000    -3.104000000    -3.393000000
H    -1.136000000    -2.271000000    -2.507000000
O     1.246000000    -3.163000000    -5.022000000
H     0.744000000    -3.428000000    -4.251000000
H     1.723000000    -2.383000000    -4.741000000
O     4.300000000    -0.089000000     0.437000000
H     3.991000000    -0.995000000     0.412000000
H     4.526000000     0.062000000     1.355000000
O     6.479000000    -2.392000000    -4.024000000
H     6.426000000    -1.594000000    -4.550000000
H     6.022000000    -2.174000000    -3.212000000
O    -1.252000000    -3.375000000     2.841000000
H    -1.083000000    -3.259000000     3.776000000
H    -0.811000000    -4.195000000     2.619000000
O     1.827000000     0.374000000     6.423000000
H     1.415000000    -0.430000000     6.739000000
H     2.123000000     0.160000000     5.538000000
O     5.603000000    -4.147000000     2.265000000
H     5.592000000    -4.728000000     1.505000000
H     6.497000000    -3.805000000     2.292000000
O     4.131000000    -5.535000000     3.902000000
H     3.418000000    -5.763000000     3.306000000
H     4.740000000    -5.028000000     3.365000000
O     3.485000000     1.503000000    -2.924000000
H     3.276000000     1.844000000    -2.054000000
H     4.036000000     2.178000000    -3.320000000
O     2.623000000    -6.460000000     1.673000000
H     2.714000000    -6.377000000     0.724000000
H     1.713000000    -6.222000000     1.849000000
O    -5.491000000     3.614000000    -0.962000000
H    -4.900000000     3.062000000    -1.474000000
H    -6.361000000     3.424000000    -1.314000000
O    -2.871000000     0.056000000    -3.985000000
H    -2.165000000     0.154000000    -4.623000000
H    -2.679000000    -0.769000000    -3.539000000
O     0.631000000    -4.402000000    -2.561000000
H     0.284000000    -4.648000000    -1.703000000
H     1.498000000    -4.043000000    -2.375000000
O    -3.109000000     7.279000000    -0.041000000
H    -2.854000000     6.882000000     0.792000000
H    -2.403000000     7.895000000    -0.238000000
O    -5.103000000     3.525000000    -4.377000000
H    -5.463000000     4.410000000    -4.434000000
H    -4.215000000     3.649000000    -4.043000000
O     3.614000000    -5.376000000    -0.815000000
H     3.462000000    -4.456000000    -0.600000000
H     4.557000000    -5.496000000    -0.703000000
O    -0.602000000    -0.615000000    -5.667000000
H     0.036000000    -0.664000000    -4.955000000
H    -0.344000000     0.159000000    -6.167000000
O     2.626000000     2.119000000    -0.153000000
H     3.352000000     1.539000000     0.078000000
H     1.857000000     1.711000000     0.245000000
O     3.129000000    -5.476000000    -4.662000000
H     2.992000000    -4.583000000    -4.979000000
H     4.073000000    -5.538000000    -4.520000000
O     2.585000000    -0.947000000    -4.104000000
H     2.686000000    -1.401000000    -3.267000000
H     3.049000000    -0.119000000    -3.985000000
O     2.419000000    -7.241000000    -2.595000000
H     2.760000000    -6.492000000    -2.107000000
H     2.530000000    -7.000000000    -3.514000000
O     1.355000000     4.573000000    -1.286000000
H     0.713000000     5.031000000    -0.744000000
H     1.674000000     3.862000000    -0.731000000
O    -3.464000000    -1.599000000     2.518000000
H    -2.613000000    -1.986000000     2.726000000
H    -3.351000000    -1.230000000     1.641000000
O     3.981000000    -2.711000000    -6.467000000
H     4.883000000    -3.030000000    -6.496000000
H     3.925000000    -2.225000000    -5.645000000
