144
-2816.20934
O    -4.653000000     3.645000000    -0.099000000
H    -5.306000000     3.747000000    -0.791000000
H    -3.821000000     3.563000000    -0.566000000
O    -4.662000000     0.892000000     0.203000000
H    -4.660000000     1.840000000     0.076000000
H    -5.570000000     0.681000000     0.421000000
O     2.098000000    -5.774000000     0.538000000
H     1.174000000    -5.849000000     0.301000000
H     2.428000000    -5.060000000    -0.006000000
O    -1.187000000     5.282000000    -4.088000000
H    -0.419000000     5.553000000    -3.584000000
H    -0.936000000     4.443000000    -4.474000000
O    -2.599000000     1.913000000     6.322000000
H    -1.997000000     1.799000000     7.058000000
H    -3.268000000     1.242000000     6.453000000
O     4.085000000    -0.091000000    -1.598000000
H     4.772000000    -0.701000000    -1.867000000
H     3.270000000    -0.575000000    -1.727000000
O     3.325000000    -5.190000000    -3.920000000
H     3.325000000    -6.055000000    -4.331000000
H     2.723000000    -4.671000000    -4.454000000
O    -2.616000000     3.298000000    -2.108000000
H    -1.662000000     3.225000000    -2.061000000
H    -2.774000000     3.918000000    -2.820000000
O     0.680000000    -3.914000000     3.255000000
H     0.290000000    -4.655000000     3.720000000
H     1.511000000    -4.250000000     2.921000000
O     2.822000000    -5.779000000     3.260000000
H     2.827000000    -6.726000000     3.400000000
H     2.533000000    -5.672000000     2.354000000
O    -2.092000000     4.493000000     2.501000000
H    -1.843000000     5.216000000     3.077000000
H    -3.022000000     4.354000000     2.681000000
O    -4.181000000    -1.213000000     2.244000000
H    -3.971000000    -0.546000000     1.590000000
H    -3.462000000    -1.842000000     2.184000000
O     3.146000000     0.442000000     3.771000000
H     3.299000000     0.170000000     2.866000000
H     2.662000000    -0.286000000     4.162000000
O    -0.510000000    -1.611000000     8.359000000
H    -1.354000000    -1.470000000     8.787000000
H    -0.568000000    -1.109000000     7.546000000
O     3.300000000     2.920000000    -6.075000000
H     3.999000000     2.319000000    -6.330000000
H     2.766000000     2.419000000    -5.458000000
O    -4.881000000     4.263000000     2.501000000
H    -5.423000000     3.637000000     2.982000000
H    -4.690000000     3.826000000     1.671000000
O     1.837000000    -1.612000000     4.620000000
H     1.588000000    -2.536000000     4.590000000
H     1.007000000    -1.143000000     4.707000000
O     2.192000000     2.474000000    -2.273000000
H     2.349000000     1.530000000    -2.262000000
H     3.057000000     2.861000000    -2.135000000
O    -2.848000000     1.500000000    -5.029000000
H    -3.643000000     1.601000000    -4.506000000
H    -2.694000000     0.556000000    -5.052000000
O     4.289000000    -2.757000000     5.731000000
H     4.679000000    -2.239000000     6.436000000
H     3.508000000    -2.265000000     5.478000000
O     3.839000000    -1.899000000    -7.596000000
H     4.181000000    -2.646000000    -8.085000000
H     4.270000000    -1.953000000    -6.743000000
O    -4.284000000    -1.708000000    -4.311000000
H    -4.516000000    -2.459000000    -3.764000000
H    -3.370000000    -1.526000000    -4.093000000
O    -1.824000000     6.902000000     0.637000000
H    -2.708000000     7.270000000     0.642000000
H    -1.894000000     6.106000000     1.164000000
O    -4.519000000     1.368000000    -2.778000000
H    -3.962000000     1.986000000    -2.304000000
H    -4.571000000     0.605000000    -2.202000000
O     1.813000000     5.590000000     1.464000000
H     2.352000000     5.800000000     0.702000000
H     1.874000000     4.638000000     1.546000000
O    -1.024000000    -0.750000000     5.807000000
H    -1.660000000    -1.453000000     5.677000000
H    -1.491000000     0.046000000     5.552000000
O    -3.056000000    -0.961000000    -0.954000000
H    -2.203000000    -0.766000000    -0.565000000
H    -3.659000000    -0.352000000    -0.529000000
O    -2.181000000    -3.350000000     2.230000000
H    -1.783000000    -3.992000000     1.642000000
H    -1.442000000    -2.965000000     2.701000000
O    -3.646000000    -0.763000000     5.072000000
H    -4.435000000    -0.289000000     5.336000000
H    -3.848000000    -1.096000000     4.198000000
O     5.124000000    -3.037000000     0.689000000
H     4.500000000    -3.383000000     0.050000000
H     4.842000000    -3.409000000     1.524000000
O     4.396000000    -1.616000000    -4.544000000
H     3.569000000    -1.408000000    -4.109000000
H     4.750000000    -2.352000000    -4.046000000
O     3.413000000    -3.978000000    -1.365000000
H     3.465000000    -4.494000000    -2.170000000
H     2.964000000    -3.174000000    -1.625000000
O     1.016000000     3.255000000     6.343000000
H     1.082000000     2.302000000     6.270000000
H     0.303000000     3.492000000     5.749000000
O    -1.427000000    -1.846000000    -4.713000000
H    -0.633000000    -1.369000000    -4.472000000
H    -1.220000000    -2.763000000    -4.531000000
O    -0.943000000    -4.682000000    -3.463000000
H    -1.628000000    -5.200000000    -3.885000000
H    -0.760000000    -5.147000000    -2.646000000
O    -1.127000000    -2.752000000    -7.311000000
H    -1.282000000    -2.473000000    -6.409000000
H    -0.312000000    -2.318000000    -7.560000000
O     1.819000000     2.866000000     0.957000000
H     2.107000000     1.960000000     0.846000000
H     1.192000000     3.006000000     0.248000000
O     1.228000000    -3.715000000    -4.956000000
H     1.269000000    -2.871000000    -4.506000000
H     0.482000000    -4.163000000    -4.556000000
O     1.014000000    -1.350000000    -7.877000000
H     1.866000000    -1.672000000    -7.583000000
H     1.219000000    -0.588000000    -8.420000000
O     3.551000000     3.288000000     3.167000000
H     3.313000000     2.372000000     3.310000000
H     3.180000000     3.501000000     2.311000000
O     0.081000000     3.803000000    -1.535000000
H     0.439000000     4.690000000    -1.579000000
H     0.828000000     3.233000000    -1.719000000
O     0.917000000     0.833000000    -5.902000000
H     0.934000000     0.309000000    -5.101000000
H     0.832000000     0.190000000    -6.606000000
O    -0.408000000    -5.976000000    -0.945000000
H    -0.176000000    -6.887000000    -1.125000000
H    -1.172000000    -6.033000000    -0.372000000
O    -1.096000000     3.469000000     4.813000000
H    -1.067000000     3.460000000     3.856000000
H    -1.772000000     2.830000000     5.039000000
O    -0.623000000     2.967000000    -5.676000000
H    -1.362000000     2.384000000    -5.503000000
H     0.134000000     2.385000000    -5.732000000
O     4.030000000     0.401000000     0.818000000
H     4.912000000     0.558000000     1.154000000
H     4.151000000     0.275000000    -0.123000000
O    -1.820000000     6.524000000     4.415000000
H    -0.963000000     6.124000000     4.272000000
H    -1.819000000     6.768000000     5.340000000
O     2.476000000    -5.255000000    -6.893000000
H     1.999000000    -5.253000000    -7.723000000
H     1.871000000    -4.854000000    -6.269000000
