144
-2808.61642
O     1.911000000    -4.675000000     5.591000000
H     1.919000000    -4.570000000     4.640000000
H     1.856000000    -5.621000000     5.727000000
O    -5.247000000     2.711000000     3.023000000
H    -5.121000000     1.767000000     2.922000000
H    -6.196000000     2.820000000     3.084000000
O     3.438000000    -1.672000000     5.641000000
H     3.198000000    -2.310000000     6.313000000
H     3.208000000    -2.096000000     4.815000000
O     2.786000000     5.453000000    -0.235000000
H     2.366000000     4.746000000     0.255000000
H     2.059000000     5.944000000    -0.619000000
O    -1.919000000    -2.511000000    -1.033000000
H    -1.099000000    -2.927000000    -1.299000000
H    -2.601000000    -3.044000000    -1.441000000
O    -4.030000000    -1.048000000     0.080000000
H    -3.158000000    -1.428000000    -0.029000000
H    -4.460000000    -1.189000000    -0.763000000
O    -1.674000000    -2.014000000     4.038000000
H    -1.850000000    -2.565000000     3.275000000
H    -2.538000000    -1.715000000     4.322000000
O     5.267000000    -4.956000000    -3.428000000
H     4.980000000    -4.179000000    -2.949000000
H     6.187000000    -4.785000000    -3.633000000
O     4.040000000    -2.745000000     2.753000000
H     3.484000000    -2.740000000     1.974000000
H     4.233000000    -3.671000000     2.903000000
O    -0.302000000     5.974000000    -1.736000000
H    -0.387000000     6.026000000    -0.784000000
H    -0.699000000     6.783000000    -2.057000000
O     5.526000000    -7.265000000     0.483000000
H     5.429000000    -6.356000000     0.765000000
H     5.407000000    -7.236000000    -0.466000000
O     5.054000000    -3.012000000    -1.613000000
H     4.115000000    -2.953000000    -1.440000000
H     5.459000000    -2.988000000    -0.746000000
O     2.863000000     0.777000000     2.323000000
H     3.739000000     1.143000000     2.204000000
H     2.679000000     0.323000000     1.500000000
O    -6.987000000     0.784000000    -1.698000000
H    -6.617000000    -0.059000000    -1.436000000
H    -6.266000000     1.237000000    -2.134000000
O    -3.214000000     4.872000000     0.651000000
H    -3.503000000     4.702000000     1.548000000
H    -3.855000000     4.418000000     0.103000000
O    -3.176000000     4.556000000     3.596000000
H    -3.883000000     3.911000000     3.634000000
H    -2.374000000     4.034000000     3.621000000
O    -0.546000000     3.013000000     3.709000000
H    -0.586000000     2.092000000     3.454000000
H     0.349000000     3.281000000     3.500000000
O    -3.812000000     5.338000000    -4.450000000
H    -3.215000000     4.733000000    -4.010000000
H    -4.026000000     4.905000000    -5.276000000
O    -1.700000000    -2.644000000     6.771000000
H    -1.460000000    -2.253000000     5.931000000
H    -2.088000000    -1.924000000     7.269000000
O    -0.447000000     6.131000000     1.034000000
H    -0.814000000     6.986000000     1.256000000
H    -1.186000000     5.527000000     1.107000000
O    -1.936000000     3.722000000    -3.217000000
H    -1.212000000     4.346000000    -3.270000000
H    -1.768000000     3.227000000    -2.415000000
O    -2.558000000     1.741000000     6.123000000
H    -1.878000000     1.224000000     5.691000000
H    -3.380000000     1.377000000     5.795000000
O    -4.521000000     0.924000000    -2.924000000
H    -4.260000000     0.052000000    -2.628000000
H    -3.715000000     1.312000000    -3.265000000
O     1.931000000     3.910000000     3.214000000
H     2.506000000     3.995000000     3.974000000
H     1.665000000     4.807000000     3.013000000
O    -0.542000000     0.545000000     4.720000000
H    -0.731000000    -0.364000000     4.488000000
H     0.413000000     0.586000000     4.772000000
O     0.332000000    -3.763000000    -4.795000000
H     0.256000000    -3.271000000    -5.612000000
H     1.153000000    -3.458000000    -4.408000000
O     4.452000000    -0.039000000    -0.294000000
H     4.574000000    -0.451000000    -1.149000000
H     4.992000000    -0.560000000     0.302000000
O     1.508000000     1.199000000    -5.926000000
H     2.114000000     1.239000000    -5.186000000
H     1.997000000     0.744000000    -6.611000000
O     5.916000000    -1.949000000     0.857000000
H     5.482000000    -2.192000000     1.675000000
H     6.787000000    -1.658000000     1.125000000
O     5.670000000    -0.636000000    -2.714000000
H     6.525000000    -0.714000000    -3.137000000
H     5.362000000    -1.539000000    -2.630000000
O    -1.683000000    -3.331000000     1.680000000
H    -1.510000000    -3.016000000     0.793000000
H    -2.283000000    -4.067000000     1.560000000
O     2.089000000     1.166000000     4.881000000
H     2.122000000     1.381000000     3.949000000
H     2.988000000     0.922000000     5.102000000
O     3.984000000    -5.513000000     3.005000000
H     3.679000000    -5.835000000     2.156000000
H     4.617000000    -6.170000000     3.296000000
O     3.636000000     0.791000000    -4.142000000
H     3.080000000     1.479000000    -3.777000000
H     4.329000000     0.672000000    -3.492000000
O     0.692000000    -4.489000000     2.737000000
H     1.102000000    -4.251000000     1.905000000
H     0.026000000    -3.816000000     2.876000000
O    -5.186000000     4.160000000    -1.969000000
H    -4.486000000     3.716000000    -2.447000000
H    -5.751000000     4.521000000    -2.652000000
O    -2.695000000     1.161000000    -5.612000000
H    -2.798000000     0.210000000    -5.613000000
H    -2.093000000     1.338000000    -6.335000000
O    -0.125000000    -4.343000000    -1.928000000
H     0.182000000    -3.988000000    -2.762000000
H     0.651000000    -4.346000000    -1.368000000
O    -3.867000000     7.405000000    -0.403000000
H    -3.697000000     6.712000000     0.235000000
H    -3.013000000     7.580000000    -0.799000000
O     3.703000000    -5.189000000     0.040000000
H     3.378000000    -4.292000000     0.125000000
H     3.817000000    -5.314000000    -0.902000000
O     2.444000000     2.959000000     0.464000000
H     3.038000000     2.211000000     0.524000000
H     2.223000000     3.164000000     1.373000000
O     1.432000000    -6.284000000    -4.857000000
H     1.010000000    -5.490000000    -4.528000000
H     2.037000000    -5.973000000    -5.530000000
O     2.640000000    -2.386000000    -3.990000000
H     2.676000000    -2.787000000    -3.122000000
H     3.055000000    -1.531000000    -3.877000000
O     2.137000000     2.395000000    -2.635000000
H     2.254000000     3.331000000    -2.795000000
H     1.615000000     2.352000000    -1.834000000
O     1.922000000    -6.669000000     1.439000000
H     2.261000000    -5.936000000     0.926000000
H     1.440000000    -6.256000000     2.157000000
O    -4.969000000     0.112000000     2.452000000
H    -4.713000000    -0.730000000     2.828000000
H    -4.794000000     0.019000000     1.516000000
O     1.823000000     5.157000000    -3.041000000
H     1.591000000     5.131000000    -3.970000000
H     1.004000000     5.371000000    -2.595000000
O     2.719000000    -2.459000000    -6.697000000
H     3.626000000    -2.708000000    -6.873000000
H     2.729000000    -2.140000000    -5.795000000
