144
-2831.75139
O    -6.394000000     0.933000000     4.345000000
H    -6.874000000     0.788000000     5.160000000
H    -6.559000000     1.851000000     4.130000000
O     0.816000000     1.749000000     5.789000000
H     0.945000000     1.055000000     5.143000000
H     0.496000000     1.295000000     6.568000000
O    -5.943000000     2.884000000     0.747000000
H    -5.876000000     2.083000000     1.268000000
H    -5.055000000     3.031000000     0.421000000
O     1.055000000    -5.748000000    -4.089000000
H     1.727000000    -6.189000000    -4.609000000
H     1.110000000    -4.830000000    -4.356000000
O     6.068000000    -3.871000000    -1.904000000
H     5.544000000    -3.774000000    -1.108000000
H     5.423000000    -3.940000000    -2.608000000
O     5.297000000     2.823000000    -3.729000000
H     5.153000000     3.012000000    -4.656000000
H     6.100000000     2.302000000    -3.712000000
O    -2.124000000     5.602000000    -4.122000000
H    -2.257000000     6.435000000    -3.670000000
H    -1.302000000     5.265000000    -3.766000000
O     1.382000000    -4.106000000     1.321000000
H     1.027000000    -3.703000000     2.114000000
H     0.624000000    -4.509000000     0.898000000
O    -3.336000000     4.179000000     2.465000000
H    -2.428000000     4.150000000     2.767000000
H    -3.323000000     3.726000000     1.621000000
O    -3.304000000    -0.989000000     0.051000000
H    -3.251000000    -0.857000000    -0.896000000
H    -2.404000000    -0.883000000     0.358000000
O    -3.652000000     3.427000000    -0.411000000
H    -3.775000000     3.226000000    -1.339000000
H    -3.481000000     4.368000000    -0.390000000
O     2.788000000     3.340000000     4.854000000
H     2.480000000     4.242000000     4.945000000
H     2.202000000     2.829000000     5.412000000
O    -0.849000000    -3.019000000     3.483000000
H    -1.509000000    -2.922000000     2.796000000
H    -0.919000000    -3.935000000     3.754000000
O     3.585000000    -5.297000000    -5.571000000
H     3.608000000    -4.775000000    -4.770000000
H     3.426000000    -4.660000000    -6.268000000
O     2.641000000     3.217000000    -2.964000000
H     3.555000000     2.936000000    -3.017000000
H     2.137000000     2.430000000    -3.171000000
O     0.677000000     3.383000000    -6.331000000
H     1.273000000     2.793000000    -6.790000000
H     0.295000000     2.845000000    -5.637000000
O     1.271000000    -0.676000000     4.418000000
H     2.044000000    -1.220000000     4.573000000
H     0.598000000    -1.292000000     4.130000000
O    -1.025000000    -3.502000000    -4.033000000
H    -1.202000000    -3.743000000    -3.124000000
H    -1.411000000    -4.211000000    -4.548000000
O    -0.562000000     1.070000000    -4.938000000
H    -0.869000000     0.166000000    -5.010000000
H     0.168000000     1.026000000    -4.320000000
O    -0.265000000     3.832000000     2.371000000
H     0.415000000     3.158000000     2.366000000
H    -0.153000000     4.291000000     1.539000000
O     4.421000000     3.678000000     0.195000000
H     3.997000000     3.999000000    -0.600000000
H     5.299000000     3.423000000    -0.088000000
O     0.202000000    -0.407000000     7.525000000
H    -0.518000000    -0.907000000     7.140000000
H    -0.130000000    -0.127000000     8.378000000
O    -3.724000000    -3.796000000     2.529000000
H    -3.510000000    -4.002000000     3.438000000
H    -4.630000000    -3.487000000     2.560000000
O     5.864000000    -1.835000000    -4.240000000
H     6.664000000    -1.869000000    -3.714000000
H     5.155000000    -1.901000000    -3.600000000
O     3.806000000    -3.709000000    -0.063000000
H     4.293000000    -4.385000000     0.406000000
H     2.974000000    -3.644000000     0.405000000
O     0.915000000    -6.354000000    -1.176000000
H     0.904000000    -6.021000000    -2.073000000
H     0.299000000    -7.086000000    -1.184000000
O    -3.395000000    -0.596000000    -2.715000000
H    -3.577000000     0.338000000    -2.825000000
H    -2.616000000    -0.752000000    -3.249000000
O    -1.710000000    -4.996000000     1.250000000
H    -2.429000000    -4.509000000     1.652000000
H    -1.877000000    -5.909000000     1.484000000
O    -1.740000000    -1.480000000     5.655000000
H    -1.253000000    -2.043000000     5.053000000
H    -2.543000000    -1.261000000     5.182000000
O     0.842000000     4.498000000    -0.290000000
H     1.447000000     5.171000000     0.023000000
H     1.318000000     3.676000000    -0.174000000
O     6.919000000     0.570000000    -0.943000000
H     6.146000000     0.168000000    -1.339000000
H     6.575000000     1.078000000    -0.208000000
O     3.354000000     0.172000000    -5.411000000
H     2.893000000     0.340000000    -4.589000000
H     4.061000000    -0.427000000    -5.171000000
O    -4.403000000    -0.963000000     4.452000000
H    -4.541000000    -1.597000000     3.748000000
H    -5.012000000    -0.251000000     4.256000000
O     4.809000000    -1.184000000    -1.671000000
H     4.833000000    -1.881000000    -1.016000000
H     3.902000000    -1.176000000    -1.979000000
O    -1.219000000     3.145000000     7.359000000
H    -0.783000000     2.588000000     6.714000000
H    -1.932000000     2.605000000     7.700000000
O    -4.748000000    -3.838000000    -0.421000000
H    -4.246000000    -3.030000000    -0.309000000
H    -4.317000000    -4.469000000     0.156000000
O     1.308000000    -2.827000000    -5.118000000
H     1.466000000    -2.402000000    -4.275000000
H     0.398000000    -3.119000000    -5.072000000
O    -2.070000000    -1.207000000    -5.062000000
H    -1.849000000    -2.112000000    -4.841000000
H    -2.869000000    -1.276000000    -5.584000000
O     2.015000000     2.303000000     1.968000000
H     2.290000000     1.836000000     2.757000000
H     2.833000000     2.568000000     1.549000000
O     3.326000000    -3.643000000    -3.108000000
H     3.154000000    -4.030000000    -2.249000000
H     2.907000000    -2.783000000    -3.071000000
O     0.014000000     4.653000000    -2.809000000
H     0.728000000     4.082000000    -3.092000000
H     0.189000000     4.814000000    -1.882000000
O     2.652000000     1.692000000    -7.353000000
H     2.964000000     1.159000000    -6.622000000
H     3.412000000     2.216000000    -7.609000000
O    -5.333000000     0.200000000     1.602000000
H    -4.794000000    -0.182000000     0.909000000
H    -5.927000000    -0.505000000     1.859000000
O    -1.169000000    -4.345000000    -1.385000000
H    -1.532000000    -4.566000000    -0.527000000
H    -0.480000000    -4.993000000    -1.527000000
O    -4.421000000     3.223000000     5.148000000
H    -4.350000000     3.390000000     4.208000000
H    -4.018000000     3.988000000     5.558000000
O    -1.002000000     6.648000000     2.886000000
H    -0.744000000     6.686000000     3.807000000
H    -0.908000000     5.725000000     2.649000000
O    -4.343000000    -0.407000000     7.162000000
H    -4.339000000    -0.573000000     6.219000000
H    -4.169000000     0.531000000     7.241000000
O     2.720000000    -3.042000000    -7.582000000
H     2.235000000    -2.635000000    -6.865000000
H     3.523000000    -2.526000000    -7.652000000
