144
-2833.58018
O    -2.441000000    -3.491000000    -5.838000000
H    -2.044000000    -2.695000000    -5.483000000
H    -1.799000000    -4.178000000    -5.661000000
O    -1.475000000    -2.493000000     6.534000000
H    -1.170000000    -2.173000000     7.383000000
H    -0.830000000    -3.154000000     6.282000000
O     2.584000000     3.638000000    -5.595000000
H     2.915000000     2.749000000    -5.473000000
H     3.262000000     4.200000000    -5.220000000
O     0.845000000    -4.165000000     6.304000000
H     1.217000000    -5.034000000     6.155000000
H     0.434000000    -4.225000000     7.166000000
O     6.142000000     2.678000000    -3.663000000
H     6.880000000     2.301000000    -3.184000000
H     5.436000000     2.723000000    -3.018000000
O     2.066000000     4.807000000     1.982000000
H     1.715000000     5.554000000     2.467000000
H     1.937000000     4.060000000     2.567000000
O    -0.903000000     3.991000000     4.741000000
H    -1.122000000     4.379000000     3.894000000
H    -1.139000000     3.068000000     4.650000000
O     1.308000000    -1.408000000     5.280000000
H     2.040000000    -1.593000000     4.691000000
H     1.149000000    -2.237000000     5.732000000
O    -1.634000000    -6.185000000    -0.353000000
H    -1.471000000    -5.334000000     0.053000000
H    -0.787000000    -6.630000000    -0.326000000
O     0.623000000    -7.421000000     0.039000000
H     0.649000000    -8.312000000     0.388000000
H     0.416000000    -6.873000000     0.797000000
O    -1.938000000    -1.515000000     3.921000000
H    -1.225000000    -1.890000000     3.403000000
H    -1.843000000    -1.918000000     4.785000000
O    -1.864000000     5.038000000     2.394000000
H    -2.730000000     4.740000000     2.113000000
H    -1.760000000     5.895000000     1.981000000
O     0.473000000    -4.677000000    -1.962000000
H     1.396000000    -4.476000000    -1.807000000
H     0.047000000    -4.511000000    -1.120000000
O     3.657000000     5.060000000    -0.382000000
H     4.524000000     5.028000000     0.022000000
H     3.048000000     5.062000000     0.357000000
O     4.849000000    -0.099000000    -2.679000000
H     4.698000000     0.749000000    -2.261000000
H     5.374000000    -0.588000000    -2.046000000
O     4.491000000    -0.189000000     2.458000000
H     4.955000000    -0.724000000     3.102000000
H     3.946000000     0.398000000     2.983000000
O    -3.773000000    -2.875000000    -2.988000000
H    -3.322000000    -2.681000000    -3.810000000
H    -3.168000000    -3.445000000    -2.513000000
O     4.429000000     2.530000000    -1.518000000
H     4.755000000     2.299000000    -0.648000000
H     4.061000000     3.407000000    -1.410000000
O    -3.868000000     3.964000000     0.878000000
H    -4.752000000     4.061000000     0.523000000
H    -3.560000000     3.129000000     0.527000000
O    -0.291000000     0.792000000     4.771000000
H    -0.211000000    -0.161000000     4.748000000
H    -0.930000000     0.996000000     4.088000000
O     0.295000000     6.938000000    -3.610000000
H     0.900000000     6.413000000    -4.133000000
H     0.768000000     7.111000000    -2.796000000
O    -3.841000000     1.040000000    -2.780000000
H    -3.994000000     0.231000000    -2.292000000
H    -3.730000000     1.709000000    -2.105000000
O    -2.260000000    -5.115000000    -2.849000000
H    -1.378000000    -5.117000000    -3.220000000
H    -2.151000000    -5.470000000    -1.967000000
O    -4.082000000    -3.731000000     2.001000000
H    -3.205000000    -3.484000000     2.296000000
H    -4.516000000    -4.056000000     2.790000000
O    -2.209000000    -4.948000000     4.136000000
H    -2.330000000    -5.669000000     4.753000000
H    -2.233000000    -4.161000000     4.680000000
O     2.318000000    -3.454000000     3.350000000
H     2.259000000    -3.926000000     2.519000000
H     1.462000000    -3.036000000     3.450000000
O     2.995000000    -0.955000000    -0.013000000
H     2.530000000    -0.184000000     0.312000000
H     3.774000000    -1.015000000     0.539000000
O     1.222000000    -0.644000000    -6.135000000
H     1.545000000    -1.408000000    -6.613000000
H     2.012000000    -0.159000000    -5.897000000
O     2.446000000    -4.989000000     1.017000000
H     1.514000000    -5.148000000     1.164000000
H     2.470000000    -4.338000000     0.315000000
O    -2.228000000     1.835000000     3.133000000
H    -2.824000000     1.088000000     3.183000000
H    -2.744000000     2.526000000     2.719000000
O     0.152000000    -6.069000000     2.316000000
H    -0.138000000    -6.686000000     2.988000000
H    -0.168000000    -5.218000000     2.618000000
O    -3.685000000     5.615000000    -2.770000000
H    -3.798000000     4.746000000    -3.157000000
H    -3.232000000     6.120000000    -3.446000000
O     2.502000000     1.260000000     3.808000000
H     1.665000000     1.059000000     4.227000000
H     2.549000000     2.216000000     3.815000000
O     2.834000000     6.980000000    -2.087000000
H     2.880000000     6.375000000    -1.347000000
H     3.726000000     7.312000000    -2.181000000
O    -3.874000000    -6.949000000     1.176000000
H    -3.006000000    -6.783000000     0.808000000
H    -4.006000000    -6.240000000     1.805000000
O    -4.020000000    -0.354000000     2.683000000
H    -4.500000000    -1.018000000     2.189000000
H    -3.355000000    -0.847000000     3.163000000
O    -0.838000000    -1.210000000    -4.464000000
H    -0.630000000    -1.796000000    -3.736000000
H     0.015000000    -0.941000000    -4.806000000
O    -3.483000000     6.525000000    -0.009000000
H    -3.629000000     6.497000000    -0.954000000
H    -3.628000000     5.625000000     0.283000000
O     2.578000000     0.377000000     7.243000000
H     2.222000000     0.370000000     6.355000000
H     2.235000000    -0.421000000     7.646000000
O    -0.147000000    -6.896000000    -3.040000000
H     0.045000000    -6.040000000    -2.657000000
H     0.575000000    -7.455000000    -2.752000000
O    -2.489000000     1.073000000    -4.988000000
H    -1.907000000     0.314000000    -4.949000000
H    -2.921000000     1.088000000    -4.134000000
O     5.782000000     1.440000000     0.705000000
H     6.491000000     0.804000000     0.610000000
H     5.239000000     1.091000000     1.412000000
O    -4.556000000    -1.074000000    -1.142000000
H    -4.392000000    -1.895000000    -1.608000000
H    -5.193000000    -1.306000000    -0.466000000
O     0.082000000    -4.005000000    -5.159000000
H     0.517000000    -3.921000000    -6.008000000
H     0.767000000    -4.322000000    -4.570000000
O     2.217000000     3.675000000     4.841000000
H     2.421000000     4.479000000     5.319000000
H     1.285000000     3.528000000     5.006000000
O     2.576000000    -3.368000000    -1.036000000
H     3.009000000    -3.202000000    -1.873000000
H     2.774000000    -2.595000000    -0.507000000
O    -3.374000000     1.207000000     0.347000000
H    -2.483000000     0.858000000     0.348000000
H    -3.902000000     0.518000000     0.752000000
O     3.758000000     0.874000000    -5.160000000
H     4.008000000     0.763000000    -4.243000000
H     4.551000000     0.662000000    -5.652000000
