144
-2804.69667
O     0.097000000    -3.413000000     7.327000000
H     0.490000000    -2.541000000     7.290000000
H     0.423000000    -3.855000000     6.543000000
O     2.918000000     6.738000000     1.143000000
H     2.019000000     6.660000000     0.824000000
H     2.850000000     6.604000000     2.088000000
O     5.751000000    -2.276000000    -1.035000000
H     5.733000000    -2.677000000    -1.904000000
H     5.162000000    -2.817000000    -0.509000000
O     0.336000000     6.550000000     0.443000000
H     0.118000000     7.268000000     1.037000000
H    -0.503000000     6.289000000     0.063000000
O    -1.318000000     3.781000000     2.694000000
H    -1.962000000     4.461000000     2.495000000
H    -1.751000000     2.963000000     2.447000000
O     2.750000000    -1.194000000     5.941000000
H     2.522000000    -1.978000000     5.442000000
H     3.164000000    -1.528000000     6.737000000
O    -2.631000000    -3.763000000    -3.173000000
H    -2.375000000    -3.692000000    -2.253000000
H    -3.559000000    -3.995000000    -3.146000000
O     1.584000000    -7.132000000    -1.774000000
H     1.082000000    -7.904000000    -1.513000000
H     1.088000000    -6.393000000    -1.423000000
O    -2.559000000     1.393000000     4.414000000
H    -3.185000000     0.968000000     3.828000000
H    -2.002000000     0.680000000     4.727000000
O    -0.230000000    -3.533000000     4.234000000
H    -0.005000000    -3.040000000     3.445000000
H    -0.289000000    -4.442000000     3.941000000
O    -2.217000000    -7.140000000    -1.911000000
H    -2.359000000    -6.576000000    -1.151000000
H    -2.163000000    -8.024000000    -1.546000000
O    -2.363000000     6.007000000     0.050000000
H    -2.428000000     5.482000000    -0.748000000
H    -2.431000000     6.912000000    -0.253000000
O    -3.658000000     5.120000000     2.326000000
H    -3.784000000     4.202000000     2.087000000
H    -3.365000000     5.540000000     1.517000000
O     1.626000000    -4.268000000    -2.478000000
H     2.026000000    -3.404000000    -2.576000000
H     1.310000000    -4.284000000    -1.574000000
O     2.036000000     5.602000000    -1.666000000
H     2.769000000     5.393000000    -1.087000000
H     1.291000000     5.722000000    -1.076000000
O     4.218000000     0.011000000    -0.418000000
H     4.658000000    -0.773000000    -0.747000000
H     4.129000000    -0.142000000     0.523000000
O    -4.097000000     2.303000000     1.846000000
H    -3.412000000     1.639000000     1.932000000
H    -4.791000000     1.869000000     1.351000000
O    -3.955000000     3.177000000    -2.472000000
H    -4.907000000     3.164000000    -2.572000000
H    -3.749000000     2.344000000    -2.047000000
O     0.718000000     0.625000000     5.994000000
H     0.395000000     1.267000000     5.362000000
H     1.500000000     0.256000000     5.582000000
O    -5.315000000     0.525000000    -3.573000000
H    -4.528000000     0.523000000    -4.118000000
H    -4.986000000     0.449000000    -2.677000000
O    -1.968000000    -4.408000000    -5.714000000
H    -1.880000000    -3.455000000    -5.725000000
H    -1.372000000    -4.695000000    -5.022000000
O    -2.834000000    -2.683000000     2.035000000
H    -2.875000000    -3.607000000     1.791000000
H    -2.618000000    -2.691000000     2.968000000
O    -0.475000000    -6.247000000     3.741000000
H     0.217000000    -6.862000000     3.497000000
H    -0.875000000    -6.634000000     4.521000000
O     1.906000000    -7.422000000     3.607000000
H     2.031000000    -7.959000000     2.825000000
H     2.788000000    -7.138000000     3.845000000
O     3.121000000    -3.199000000     3.935000000
H     3.076000000    -3.878000000     4.608000000
H     2.378000000    -3.382000000     3.361000000
O     2.306000000     0.761000000    -2.436000000
H     1.371000000     0.672000000    -2.256000000
H     2.709000000     0.853000000    -1.572000000
O     3.868000000     5.842000000    -3.751000000
H     4.368000000     6.626000000    -3.976000000
H     3.148000000     6.165000000    -3.208000000
O    -0.340000000     0.920000000    -4.702000000
H     0.270000000     0.439000000    -5.261000000
H    -0.220000000     1.837000000    -4.949000000
O     3.563000000    -3.914000000     0.540000000
H     2.764000000    -3.802000000     0.024000000
H     3.313000000    -3.655000000     1.427000000
O    -2.524000000    -0.066000000     1.771000000
H    -2.884000000    -0.947000000     1.873000000
H    -1.635000000    -0.206000000     1.443000000
O    -0.303000000    -6.082000000     0.259000000
H     0.480000000    -6.415000000     0.698000000
H    -0.112000000    -5.157000000     0.101000000
O    -5.366000000     4.285000000    -5.114000000
H    -6.027000000     3.613000000    -5.281000000
H    -4.794000000     3.899000000    -4.451000000
O     4.446000000    -1.452000000     2.000000000
H     4.942000000    -2.223000000     1.722000000
H     4.008000000    -1.727000000     2.806000000
O     1.656000000     7.396000000    -3.529000000
H     1.743000000     6.812000000    -2.775000000
H     0.722000000     7.599000000    -3.568000000
O    -2.859000000    -5.714000000     1.465000000
H    -2.146000000    -5.969000000     0.880000000
H    -2.612000000    -6.076000000     2.316000000
O    -1.475000000    -1.085000000     5.270000000
H    -0.794000000    -0.527000000     5.645000000
H    -1.054000000    -1.939000000     5.166000000
O    -5.011000000    -1.594000000     0.259000000
H    -5.269000000    -2.398000000    -0.193000000
H    -4.289000000    -1.861000000     0.828000000
O    -1.691000000    -1.645000000    -6.468000000
H    -0.906000000    -1.653000000    -5.920000000
H    -2.319000000    -1.113000000    -5.980000000
O    -2.422000000     5.282000000    -2.741000000
H    -2.161000000     5.508000000    -3.634000000
H    -2.871000000     4.442000000    -2.828000000
O     0.161000000    -5.945000000    -4.287000000
H     0.729000000    -5.472000000    -3.679000000
H    -0.509000000    -6.342000000    -3.730000000
O    -3.049000000     0.968000000    -4.664000000
H    -3.090000000     1.623000000    -5.361000000
H    -2.136000000     0.979000000    -4.378000000
O     3.732000000     0.726000000    -4.933000000
H     4.486000000     1.258000000    -4.677000000
H     3.141000000     0.770000000    -4.181000000
O     5.320000000    -6.371000000    -1.050000000
H     4.768000000    -5.606000000    -0.886000000
H     4.864000000    -6.851000000    -1.741000000
O     0.540000000    -2.805000000    -4.628000000
H     0.783000000    -3.244000000    -5.443000000
H     0.473000000    -3.511000000    -3.986000000
O     0.053000000     3.207000000     4.769000000
H    -0.151000000     3.933000000     5.358000000
H    -0.302000000     3.478000000     3.922000000
O     2.820000000    -1.799000000    -3.258000000
H     2.988000000    -1.011000000    -2.741000000
H     1.976000000    -1.634000000    -3.679000000
O    -3.890000000     0.518000000    -1.106000000
H    -2.983000000     0.343000000    -0.857000000
H    -4.385000000    -0.215000000    -0.741000000
O     1.447000000     3.559000000    -4.040000000
H     1.181000000     3.833000000    -3.162000000
H     2.276000000     3.099000000    -3.906000000
