144
-2791.83034
O     4.652000000    -1.664000000     3.565000000
H     4.376000000    -2.354000000     4.168000000
H     5.561000000    -1.879000000     3.355000000
O     3.846000000     3.092000000     4.693000000
H     3.267000000     2.351000000     4.870000000
H     3.833000000     3.605000000     5.501000000
O     2.238000000     3.328000000     1.898000000
H     1.422000000     3.633000000     2.294000000
H     2.850000000     3.262000000     2.631000000
O    -8.609000000     1.742000000    -3.179000000
H    -9.205000000     1.049000000    -3.463000000
H    -7.846000000     1.276000000    -2.837000000
O     1.596000000    -0.476000000    -4.103000000
H     1.462000000    -0.685000000    -5.028000000
H     0.719000000    -0.284000000    -3.771000000
O    -2.452000000     1.005000000     3.962000000
H    -3.266000000     0.618000000     3.641000000
H    -2.566000000     1.946000000     3.832000000
O    -0.688000000    -5.375000000    -1.091000000
H    -1.205000000    -5.024000000    -1.817000000
H     0.176000000    -5.537000000    -1.469000000
O    -1.607000000    -4.594000000    -3.500000000
H    -2.175000000    -4.114000000    -4.102000000
H    -0.829000000    -4.802000000    -4.018000000
O    -0.173000000    -2.915000000     2.323000000
H     0.674000000    -3.285000000     2.572000000
H     0.033000000    -2.288000000     1.630000000
O    -0.037000000     4.017000000     3.665000000
H    -0.316000000     4.480000000     4.455000000
H     0.233000000     3.153000000     3.977000000
O     0.097000000     1.495000000     5.009000000
H    -0.677000000     1.056000000     4.657000000
H    -0.132000000     1.693000000     5.917000000
O    -1.904000000     4.879000000     1.591000000
H    -1.602000000     4.587000000     2.451000000
H    -2.824000000     4.618000000     1.559000000
O    -5.925000000     4.011000000    -3.000000000
H    -5.021000000     3.757000000    -2.816000000
H    -5.901000000     4.355000000    -3.893000000
O    -3.817000000    -3.411000000    -4.775000000
H    -4.577000000    -3.003000000    -5.190000000
H    -3.847000000    -3.105000000    -3.868000000
O     1.650000000    -5.952000000    -2.204000000
H     1.681000000    -5.707000000    -3.129000000
H     2.552000000    -5.850000000    -1.899000000
O    -2.995000000     2.701000000    -5.890000000
H    -3.273000000     2.095000000    -6.577000000
H    -3.020000000     3.562000000    -6.307000000
O     4.546000000    -3.306000000    -2.291000000
H     5.058000000    -2.821000000    -1.644000000
H     4.645000000    -2.803000000    -3.100000000
O     2.681000000     0.206000000     5.492000000
H     3.019000000    -0.105000000     4.652000000
H     1.830000000     0.590000000     5.280000000
O    -4.255000000    -1.070000000     4.183000000
H    -3.303000000    -1.057000000     4.282000000
H    -4.580000000    -0.557000000     4.923000000
O    -6.269000000     1.789000000    -0.227000000
H    -6.448000000     1.606000000    -1.150000000
H    -5.330000000     1.973000000    -0.198000000
O     3.796000000    -5.636000000    -0.688000000
H     4.078000000    -4.807000000    -1.073000000
H     3.594000000    -5.420000000     0.223000000
O     5.959000000     3.821000000     0.646000000
H     5.897000000     2.876000000     0.787000000
H     6.046000000     4.189000000     1.526000000
O    -0.532000000     3.058000000    -2.172000000
H     0.316000000     2.752000000    -1.850000000
H    -0.922000000     2.288000000    -2.587000000
O    -3.558000000    -1.883000000    -2.486000000
H    -2.846000000    -2.145000000    -1.903000000
H    -3.492000000    -0.929000000    -2.531000000
O     4.691000000    -5.243000000     2.520000000
H     4.891000000    -6.080000000     2.100000000
H     5.340000000    -4.636000000     2.165000000
O     3.270000000     1.444000000    -2.979000000
H     2.606000000     0.895000000    -3.395000000
H     2.771000000     2.047000000    -2.427000000
O    -5.199000000    -2.974000000     2.232000000
H    -4.829000000    -2.203000000     2.662000000
H    -5.917000000    -2.630000000     1.700000000
O    -3.269000000     3.375000000    -2.644000000
H    -3.593000000     2.617000000    -2.157000000
H    -2.326000000     3.226000000    -2.719000000
O    -4.431000000     6.331000000    -0.233000000
H    -3.500000000     6.508000000    -0.368000000
H    -4.469000000     5.397000000    -0.024000000
O     4.400000000    -0.281000000     7.543000000
H     3.738000000    -0.645000000     8.130000000
H     3.959000000    -0.216000000     6.695000000
O    -4.224000000     3.827000000     1.404000000
H    -4.094000000     3.131000000     0.759000000
H    -4.336000000     3.365000000     2.235000000
O    -1.733000000    -2.805000000     4.439000000
H    -2.528000000    -3.170000000     4.049000000
H    -1.143000000    -2.671000000     3.697000000
O    -6.302000000     0.020000000    -2.621000000
H    -6.368000000    -0.633000000    -3.317000000
H    -5.419000000    -0.095000000    -2.268000000
O    -3.332000000     3.994000000     4.666000000
H    -2.843000000     4.749000000     4.995000000
H    -4.251000000     4.238000000     4.776000000
O     3.958000000    -2.015000000    -4.884000000
H     3.191000000    -1.684000000    -4.418000000
H     4.204000000    -1.305000000    -5.478000000
O     5.934000000     0.918000000    -2.154000000
H     6.153000000     1.840000000    -2.017000000
H     5.022000000     0.929000000    -2.444000000
O     2.311000000    -4.071000000    -5.519000000
H     2.560000000    -4.617000000    -6.264000000
H     2.838000000    -3.277000000    -5.616000000
O    -1.353000000     1.148000000    -4.077000000
H    -2.022000000     0.825000000    -3.473000000
H    -1.844000000     1.440000000    -4.845000000
O    -7.294000000     3.432000000     2.207000000
H    -7.043000000     2.763000000     1.571000000
H    -7.734000000     2.946000000     2.905000000
O     1.624000000     2.497000000    -0.882000000
H     1.786000000     2.950000000    -0.054000000
H     1.122000000     1.720000000    -0.636000000
O     6.573000000    -1.800000000    -1.358000000
H     6.537000000    -0.852000000    -1.484000000
H     7.287000000    -1.931000000    -0.734000000
O    -2.086000000    -4.882000000     1.130000000
H    -1.570000000    -5.202000000     0.390000000
H    -1.552000000    -4.185000000     1.511000000
O    -6.467000000    -1.943000000    -4.494000000
H    -7.148000000    -2.327000000    -5.046000000
H    -5.841000000    -1.567000000    -5.113000000
O    -3.234000000     5.842000000    -4.369000000
H    -3.674000000     5.169000000    -4.887000000
H    -3.126000000     5.446000000    -3.504000000
O    -6.432000000    -2.162000000    -0.208000000
H    -6.317000000    -1.663000000    -1.017000000
H    -6.831000000    -1.541000000     0.402000000
O    -1.369000000     5.730000000    -1.042000000
H    -1.509000000     5.402000000    -0.154000000
H    -0.916000000     5.017000000    -1.492000000
O     4.227000000    -3.631000000     5.398000000
H     3.910000000    -3.493000000     6.291000000
H     4.541000000    -4.535000000     5.392000000
O     2.300000000    -3.971000000     3.091000000
H     2.672000000    -3.686000000     3.926000000
H     3.035000000    -4.368000000     2.625000000
