144
-2817.07658
O    -1.985000000    -2.842000000    -6.227000000
H    -2.272000000    -2.055000000    -5.762000000
H    -1.476000000    -2.510000000    -6.966000000
O     2.288000000     3.061000000    -5.484000000
H     2.555000000     3.674000000    -6.168000000
H     2.847000000     3.277000000    -4.738000000
O     3.041000000     1.261000000    -1.131000000
H     3.380000000     0.465000000    -1.540000000
H     2.101000000     1.242000000    -1.312000000
O     0.359000000    -7.880000000    -0.539000000
H     0.274000000    -7.167000000     0.094000000
H    -0.038000000    -8.634000000    -0.105000000
O     3.793000000    -1.856000000     6.433000000
H     3.074000000    -1.278000000     6.177000000
H     3.869000000    -1.738000000     7.380000000
O    -5.125000000    -0.251000000    -5.511000000
H    -4.626000000    -0.237000000    -4.695000000
H    -4.464000000    -0.362000000    -6.195000000
O    -0.141000000    -4.406000000     4.368000000
H     0.271000000    -3.988000000     3.611000000
H     0.570000000    -4.887000000     4.791000000
O    -5.509000000    -4.854000000    -0.526000000
H    -6.138000000    -4.966000000    -1.239000000
H    -4.862000000    -4.240000000    -0.873000000
O    -0.545000000    -1.195000000     4.315000000
H    -1.425000000    -1.309000000     3.956000000
H    -0.014000000    -1.847000000     3.858000000
O     0.405000000     7.962000000     1.038000000
H     0.383000000     7.313000000     0.334000000
H    -0.464000000     8.362000000     1.023000000
O     0.991000000    -3.666000000    -4.445000000
H     1.183000000    -3.612000000    -5.381000000
H     0.986000000    -4.604000000    -4.255000000
O     1.927000000    -4.933000000    -0.760000000
H     2.654000000    -4.365000000    -1.014000000
H     1.250000000    -4.331000000    -0.450000000
O    -0.600000000     3.626000000    -5.305000000
H    -0.545000000     4.399000000    -4.744000000
H     0.310000000     3.429000000    -5.530000000
O     3.987000000     4.615000000     2.373000000
H     3.927000000     4.278000000     3.268000000
H     3.519000000     5.449000000     2.399000000
O    -3.959000000    -3.008000000    -2.227000000
H    -3.036000000    -3.241000000    -2.318000000
H    -4.348000000    -3.235000000    -3.072000000
O     3.377000000     3.839000000    -0.392000000
H     3.446000000     4.042000000     0.541000000
H     3.270000000     2.888000000    -0.423000000
O    -0.830000000     4.952000000     3.581000000
H    -1.322000000     5.393000000     4.273000000
H    -1.418000000     4.960000000     2.826000000
O    -0.845000000     0.830000000     6.198000000
H    -1.166000000     0.203000000     5.550000000
H    -0.494000000     1.553000000     5.678000000
O    -0.401000000     5.686000000    -3.385000000
H    -1.219000000     5.666000000    -2.889000000
H     0.217000000     5.189000000    -2.849000000
O    -3.934000000     2.189000000    -0.656000000
H    -3.337000000     2.137000000     0.090000000
H    -4.680000000     1.644000000    -0.404000000
O    -2.478000000    -6.687000000    -1.239000000
H    -2.575000000    -6.098000000    -0.490000000
H    -1.969000000    -7.423000000    -0.900000000
O    -2.311000000    -4.788000000     0.731000000
H    -1.485000000    -4.315000000     0.629000000
H    -2.210000000    -5.273000000     1.549000000
O     3.048000000    -4.541000000     2.923000000
H     2.268000000    -3.989000000     2.876000000
H     3.650000000    -4.058000000     3.489000000
O     5.475000000    -3.155000000     3.775000000
H     5.900000000    -3.277000000     4.624000000
H     5.101000000    -2.275000000     3.818000000
O     5.098000000     0.931000000     1.554000000
H     5.042000000     0.197000000     2.166000000
H     5.804000000     0.689000000     0.955000000
O     4.143000000     3.438000000    -3.220000000
H     4.169000000     3.533000000    -2.268000000
H     4.867000000     2.846000000    -3.422000000
O    -3.562000000     1.503000000    -3.294000000
H    -3.573000000     1.505000000    -2.337000000
H    -3.615000000     2.427000000    -3.537000000
O    -5.646000000    -1.020000000    -1.772000000
H    -6.420000000    -1.086000000    -2.330000000
H    -5.096000000    -1.757000000    -2.037000000
O    -1.331000000    -3.303000000     6.451000000
H    -0.637000000    -2.848000000     6.929000000
H    -0.900000000    -3.638000000     5.665000000
O    -0.036000000    -6.172000000     1.499000000
H     0.436000000    -6.143000000     2.332000000
H     0.097000000    -5.303000000     1.119000000
O    -2.613000000     4.556000000    -1.884000000
H    -3.167000000     5.120000000    -2.424000000
H    -3.220000000     4.135000000    -1.275000000
O     3.614000000    -1.240000000     3.010000000
H     2.864000000    -1.432000000     2.447000000
H     3.228000000    -0.883000000     3.810000000
O    -3.391000000     3.760000000    -4.843000000
H    -3.557000000     4.679000000    -5.055000000
H    -2.461000000     3.635000000    -5.032000000
O    -2.713000000    -5.050000000     4.080000000
H    -2.113000000    -5.795000000     4.093000000
H    -2.157000000    -4.291000000     4.256000000
O     1.786000000     5.362000000    -1.570000000
H     1.195000000     5.670000000    -0.883000000
H     2.268000000     4.640000000    -1.165000000
O     0.492000000    -1.046000000    -3.980000000
H     0.636000000    -1.157000000    -3.040000000
H     0.572000000    -1.929000000    -4.340000000
O    -0.602000000     5.606000000    -0.302000000
H    -0.958000000     4.801000000    -0.678000000
H    -1.232000000     5.853000000     0.375000000
O     0.418000000     3.003000000     4.904000000
H    -0.066000000     3.636000000     4.374000000
H     1.089000000     3.523000000     5.346000000
O    -2.345000000    -0.703000000    -4.713000000
H    -1.391000000    -0.750000000    -4.644000000
H    -2.590000000     0.027000000    -4.144000000
O     1.024000000     0.562000000    -5.823000000
H     0.863000000    -0.008000000    -5.071000000
H     1.652000000     1.210000000    -5.503000000
O    -1.480000000    -4.213000000    -2.405000000
H    -0.725000000    -4.122000000    -2.986000000
H    -1.506000000    -5.145000000    -2.190000000
O    -3.199000000    -1.061000000     0.572000000
H    -3.869000000    -1.742000000     0.522000000
H    -3.037000000    -0.816000000    -0.339000000
O    -2.987000000    -2.117000000     3.016000000
H    -3.011000000    -1.449000000     2.330000000
H    -3.351000000    -2.899000000     2.601000000
O     0.899000000    -6.267000000    -3.117000000
H     0.500000000    -7.086000000    -2.825000000
H     1.103000000    -5.798000000    -2.308000000
O     2.107000000    -0.041000000     5.143000000
H     2.256000000     0.755000000     5.652000000
H     1.178000000    -0.009000000     4.914000000
O    -2.279000000     1.880000000     1.793000000
H    -2.658000000     1.021000000     1.979000000
H    -1.375000000     1.692000000     1.539000000
O     3.113000000    -2.862000000    -2.446000000
H     2.790000000    -2.838000000    -3.347000000
H     3.588000000    -2.038000000    -2.340000000
O     3.791000000    -6.040000000     0.993000000
H     3.348000000    -5.691000000     0.220000000
H     3.450000000    -5.520000000     1.721000000
