144
-2808.42616
O     4.232000000     0.271000000    -2.548000000
H     4.815000000    -0.203000000    -3.141000000
H     4.690000000     0.266000000    -1.708000000
O    -0.662000000    -3.731000000    -3.962000000
H    -1.306000000    -4.176000000    -3.411000000
H    -0.189000000    -4.441000000    -4.397000000
O     1.731000000     4.301000000    -0.631000000
H     1.460000000     4.000000000    -1.498000000
H     0.931000000     4.650000000    -0.238000000
O     6.590000000     4.267000000     1.135000000
H     5.636000000     4.191000000     1.160000000
H     6.869000000     4.085000000     2.033000000
O    -6.950000000     1.484000000    -1.196000000
H    -6.874000000     0.602000000    -0.833000000
H    -6.209000000     1.961000000    -0.825000000
O     3.738000000     1.457000000     4.501000000
H     3.668000000     1.269000000     3.565000000
H     2.831000000     1.554000000     4.794000000
O    -3.661000000     0.449000000     1.856000000
H    -3.871000000     0.096000000     2.720000000
H    -3.828000000    -0.276000000     1.254000000
O    -0.683000000    -2.312000000    -6.896000000
H    -1.020000000    -1.938000000    -6.082000000
H     0.143000000    -2.726000000    -6.645000000
O    -0.342000000    -5.248000000    -0.532000000
H    -1.047000000    -5.138000000    -1.170000000
H    -0.770000000    -5.623000000     0.237000000
O    -2.154000000     3.233000000    -4.819000000
H    -3.021000000     3.236000000    -4.413000000
H    -1.985000000     2.312000000    -5.015000000
O     2.589000000     3.684000000    -4.010000000
H     2.511000000     2.959000000    -4.630000000
H     1.685000000     3.914000000    -3.795000000
O    -4.447000000    -3.103000000    -2.307000000
H    -4.406000000    -2.296000000    -2.819000000
H    -5.351000000    -3.402000000    -2.402000000
O     6.442000000     0.671000000     4.376000000
H     5.551000000     0.793000000     4.704000000
H     6.327000000     0.413000000     3.462000000
O     1.843000000     1.100000000    -3.237000000
H     1.182000000     0.708000000    -2.666000000
H     2.678000000     0.875000000    -2.826000000
O     5.412000000    -4.239000000     3.946000000
H     5.602000000    -5.038000000     3.455000000
H     4.537000000    -4.380000000     4.305000000
O     3.969000000    -3.621000000     0.831000000
H     4.891000000    -3.593000000     1.088000000
H     3.648000000    -2.734000000     0.991000000
O    -0.331000000     5.597000000     0.937000000
H    -0.098000000     6.483000000     1.214000000
H    -0.679000000     5.183000000     1.727000000
O     6.910000000     3.501000000     3.783000000
H     6.566000000     2.615000000     3.675000000
H     6.840000000     3.673000000     4.722000000
O    -2.508000000    -5.103000000    -2.439000000
H    -2.931000000    -5.921000000    -2.178000000
H    -3.192000000    -4.440000000    -2.350000000
O    -1.108000000     1.829000000     3.049000000
H    -0.729000000     1.299000000     3.749000000
H    -1.893000000     1.350000000     2.784000000
O    -0.971000000     4.324000000     3.880000000
H    -1.068000000     3.396000000     3.667000000
H    -0.675000000     4.331000000     4.790000000
O     5.656000000    -4.561000000    -1.699000000
H     5.336000000    -4.120000000    -0.912000000
H     5.218000000    -4.112000000    -2.421000000
O    -4.989000000    -0.810000000    -4.051000000
H    -5.918000000    -0.995000000    -4.188000000
H    -4.967000000     0.102000000    -3.761000000
O     0.082000000     3.870000000    -2.895000000
H    -0.088000000     4.734000000    -3.271000000
H    -0.608000000     3.313000000    -3.254000000
O     1.583000000    -2.459000000    -2.550000000
H     0.895000000    -2.907000000    -3.041000000
H     1.113000000    -1.942000000    -1.895000000
O    -2.714000000    -2.355000000    -5.079000000
H    -2.149000000    -2.612000000    -4.351000000
H    -3.204000000    -3.149000000    -5.295000000
O    -2.644000000     0.629000000    -5.383000000
H    -2.850000000    -0.263000000    -5.105000000
H    -3.455000000     1.117000000    -5.242000000
O    -2.585000000    -6.473000000     0.852000000
H    -3.447000000    -6.123000000     1.078000000
H    -2.439000000    -7.175000000     1.486000000
O    -4.929000000    -1.904000000    -7.155000000
H    -4.532000000    -1.507000000    -6.380000000
H    -4.216000000    -2.391000000    -7.567000000
O    -3.774000000     3.878000000     2.730000000
H    -3.076000000     4.352000000     2.277000000
H    -3.384000000     3.032000000     2.952000000
O     4.294000000     4.035000000    -1.793000000
H     3.693000000     4.021000000    -2.539000000
H     3.762000000     3.749000000    -1.051000000
O     4.568000000     5.425000000     3.619000000
H     4.252000000     4.718000000     3.056000000
H     4.109000000     6.204000000     3.305000000
O    -1.307000000    -3.215000000     3.890000000
H    -0.968000000    -3.845000000     3.252000000
H    -0.617000000    -3.150000000     4.551000000
O    -6.543000000    -1.259000000    -0.733000000
H    -7.105000000    -1.906000000    -1.160000000
H    -5.652000000    -1.534000000    -0.952000000
O     4.996000000    -2.095000000     5.893000000
H     5.170000000    -2.748000000     5.214000000
H     5.324000000    -2.494000000     6.699000000
O    -4.706000000     4.501000000    -3.596000000
H    -4.944000000     4.398000000    -4.518000000
H    -4.191000000     5.308000000    -3.570000000
O    -4.871000000     1.750000000    -3.227000000
H    -5.063000000     2.655000000    -3.472000000
H    -4.754000000     1.779000000    -2.278000000
O     2.781000000    -1.489000000     4.438000000
H     3.699000000    -1.482000000     4.709000000
H     2.808000000    -1.321000000     3.496000000
O     4.972000000     3.082000000     6.207000000
H     4.384000000     2.707000000     5.551000000
H     4.468000000     3.060000000     7.021000000
O     7.291000000    -2.396000000     2.696000000
H     6.795000000    -1.663000000     2.331000000
H     6.734000000    -3.160000000     2.549000000
O     0.733000000    -2.779000000     5.459000000
H     1.461000000    -2.361000000     4.998000000
H     1.021000000    -2.824000000     6.371000000
O     2.420000000    -5.674000000    -1.023000000
H     1.476000000    -5.663000000    -0.868000000
H     2.722000000    -4.817000000    -0.723000000
O     3.793000000     3.604000000     1.299000000
H     3.036000000     3.933000000     0.815000000
H     3.547000000     2.714000000     1.551000000
O     2.066000000    -5.387000000     2.591000000
H     2.624000000    -4.916000000     1.971000000
H     1.501000000    -5.929000000     2.040000000
O    -2.994000000     5.129000000    -0.366000000
H    -2.412000000     5.775000000     0.033000000
H    -3.231000000     5.509000000    -1.212000000
O     5.781000000    -0.190000000     1.862000000
H     4.865000000    -0.448000000     1.753000000
H     5.957000000     0.386000000     1.117000000
O    -4.529000000     2.582000000    -0.279000000
H    -4.133000000     1.887000000     0.245000000
H    -3.876000000     3.281000000    -0.283000000
O     6.279000000     2.285000000    -0.876000000
H     5.470000000     2.303000000    -1.387000000
H     6.344000000     3.163000000    -0.500000000
