144
-2808.40833
O     1.559000000    -0.108000000    -3.931000000
H     0.805000000     0.468000000    -4.056000000
H     1.876000000     0.101000000    -3.052000000
O    -1.109000000    -5.122000000    -0.002000000
H    -1.176000000    -6.074000000    -0.075000000
H    -0.370000000    -4.979000000     0.590000000
O     2.605000000     5.066000000    -2.761000000
H     2.188000000     4.637000000    -3.508000000
H     1.902000000     5.566000000    -2.348000000
O     7.811000000     4.654000000     0.554000000
H     7.134000000     5.330000000     0.519000000
H     7.374000000     3.897000000     0.943000000
O    -4.811000000     3.755000000    -1.773000000
H    -4.019000000     4.278000000    -1.650000000
H    -4.697000000     3.345000000    -2.630000000
O     4.199000000     1.315000000     3.364000000
H     4.656000000     1.151000000     2.539000000
H     4.511000000     2.175000000     3.644000000
O    -3.024000000    -2.386000000     4.743000000
H    -2.957000000    -2.652000000     3.826000000
H    -3.084000000    -1.431000000     4.712000000
O    -1.207000000     4.378000000     1.559000000
H    -1.505000000     3.556000000     1.950000000
H    -0.322000000     4.500000000     1.903000000
O    -6.708000000     1.639000000    -2.874000000
H    -7.632000000     1.456000000    -2.708000000
H    -6.566000000     2.511000000    -2.505000000
O     0.216000000    -4.013000000    -3.051000000
H    -0.660000000    -3.900000000    -2.683000000
H     0.533000000    -4.831000000    -2.667000000
O    -4.703000000     5.915000000     0.526000000
H    -3.904000000     5.398000000     0.623000000
H    -4.764000000     6.090000000    -0.413000000
O    -4.626000000    -1.770000000    -4.712000000
H    -4.360000000    -1.180000000    -5.417000000
H    -4.642000000    -2.637000000    -5.119000000
O     6.858000000     2.782000000     2.192000000
H     6.713000000     3.349000000     2.950000000
H     7.810000000     2.705000000     2.129000000
O    -4.745000000    -3.436000000    -1.098000000
H    -5.515000000    -3.605000000    -1.640000000
H    -4.768000000    -2.492000000    -0.937000000
O     4.106000000    -3.413000000    -0.600000000
H     4.909000000    -3.752000000    -0.204000000
H     4.154000000    -2.467000000    -0.467000000
O    -6.004000000    -5.365000000     0.837000000
H    -5.350000000    -4.841000000     0.374000000
H    -6.014000000    -5.006000000     1.724000000
O    -1.951000000     2.224000000     3.025000000
H    -1.212000000     1.623000000     3.108000000
H    -2.397000000     2.176000000     3.871000000
O     3.433000000    -4.762000000     2.308000000
H     3.569000000    -3.858000000     2.590000000
H     3.039000000    -4.686000000     1.439000000
O     0.945000000     7.045000000    -1.771000000
H     1.416000000     6.839000000    -0.964000000
H     0.691000000     7.962000000    -1.673000000
O    -4.446000000     2.676000000     2.031000000
H    -4.967000000     1.979000000     2.432000000
H    -3.555000000     2.518000000     2.342000000
O    -7.092000000    -1.519000000    -0.119000000
H    -6.669000000    -1.895000000     0.653000000
H    -6.385000000    -1.079000000    -0.590000000
O    -6.533000000     2.723000000     0.234000000
H    -5.808000000     3.166000000    -0.206000000
H    -6.169000000     2.448000000     1.076000000
O     1.669000000     3.336000000     2.471000000
H     2.372000000     2.823000000     2.073000000
H     1.187000000     2.706000000     3.007000000
O    -6.005000000     0.375000000     2.759000000
H    -5.600000000    -0.215000000     2.123000000
H    -6.536000000    -0.198000000     3.312000000
O     2.014000000     5.638000000     0.898000000
H     1.871000000     6.180000000     1.674000000
H     2.359000000     4.814000000     1.241000000
O     4.614000000    -1.360000000    -5.063000000
H     4.894000000    -0.688000000    -4.442000000
H     3.877000000    -1.792000000    -4.632000000
O     0.414000000    -5.259000000     2.438000000
H     1.290000000    -5.409000000     2.083000000
H     0.424000000    -4.345000000     2.720000000
O     4.700000000     1.977000000    -3.906000000
H     4.537000000     1.223000000    -3.340000000
H     3.829000000     2.269000000    -4.174000000
O     0.790000000    -2.443000000    -5.165000000
H     0.453000000    -3.065000000    -4.520000000
H     1.032000000    -1.673000000    -4.651000000
O    -2.520000000    -4.242000000    -2.080000000
H    -1.993000000    -4.442000000    -1.306000000
H    -3.345000000    -3.909000000    -1.729000000
O     3.901000000     4.051000000     3.948000000
H     3.073000000     4.308000000     3.542000000
H     3.829000000     4.356000000     4.853000000
O     5.481000000     6.073000000     0.231000000
H     4.905000000     5.362000000    -0.049000000
H     5.504000000     6.671000000    -0.516000000
O     0.222000000    -2.589000000     2.374000000
H     0.244000000    -2.027000000     1.600000000
H     0.471000000    -2.011000000     3.096000000
O    -5.631000000    -0.872000000    -2.386000000
H    -5.828000000     0.008000000    -2.707000000
H    -5.246000000    -1.320000000    -3.139000000
O     3.782000000    -1.928000000     2.460000000
H     4.579000000    -1.654000000     2.913000000
H     3.713000000    -1.333000000     1.714000000
O    -5.596000000    -2.352000000     2.031000000
H    -5.641000000    -2.246000000     2.981000000
H    -4.791000000    -2.849000000     1.883000000
O     8.966000000    -0.402000000     0.098000000
H     9.443000000     0.187000000    -0.487000000
H     8.093000000    -0.015000000     0.166000000
O     4.792000000    -0.197000000    -2.241000000
H     4.529000000    -0.217000000    -1.321000000
H     5.728000000    -0.395000000    -2.227000000
O     2.016000000    -1.472000000     4.388000000
H     2.706000000    -1.688000000     3.761000000
H     2.264000000    -1.938000000     5.186000000
O     3.340000000    -3.665000000    -3.580000000
H     2.452000000    -4.001000000    -3.705000000
H     3.508000000    -3.775000000    -2.644000000
O     4.259000000     3.895000000    -0.753000000
H     3.483000000     4.163000000    -1.245000000
H     4.021000000     3.049000000    -0.373000000
O     0.789000000     1.278000000     4.177000000
H     1.236000000     0.459000000     4.388000000
H     0.865000000     1.805000000     4.973000000
O     1.874000000    -5.237000000     0.026000000
H     2.477000000    -4.793000000    -0.571000000
H     1.339000000    -5.791000000    -0.542000000
O    -2.491000000    -3.409000000     2.173000000
H    -1.724000000    -2.836000000     2.160000000
H    -2.217000000    -4.187000000     1.686000000
O     6.406000000    -3.963000000     0.565000000
H     6.926000000    -3.761000000     1.342000000
H     6.897000000    -3.576000000    -0.160000000
O     6.304000000     0.744000000     0.438000000
H     5.435000000     0.353000000     0.524000000
H     6.253000000     1.554000000     0.947000000
O    -2.242000000     5.132000000    -0.699000000
H    -1.681000000     4.928000000     0.049000000
H    -1.631000000     5.318000000    -1.412000000
O     6.719000000     3.732000000    -2.240000000
H     6.444000000     2.859000000    -2.519000000
H     6.262000000     3.874000000    -1.411000000
