144
-2770.17768
O    -1.416000000    -0.934000000    -7.171000000
H    -0.671000000    -1.426000000    -7.517000000
H    -1.808000000    -1.518000000    -6.522000000
O     3.712000000     3.366000000    -0.889000000
H     4.636000000     3.601000000    -0.969000000
H     3.673000000     2.449000000    -1.162000000
O     4.417000000    -2.822000000     6.200000000
H     5.066000000    -3.241000000     6.766000000
H     3.808000000    -2.400000000     6.806000000
O    -5.247000000     0.812000000     2.612000000
H    -4.539000000     0.568000000     2.017000000
H    -6.002000000     0.309000000     2.307000000
O    -4.501000000     0.902000000    -5.020000000
H    -4.384000000     1.452000000    -4.246000000
H    -3.649000000     0.919000000    -5.457000000
O     1.758000000    -4.847000000     5.810000000
H     2.573000000    -4.863000000     5.308000000
H     1.914000000    -5.445000000     6.541000000
O    -1.689000000    -5.028000000     0.283000000
H    -1.416000000    -5.169000000    -0.624000000
H    -1.005000000    -5.444000000     0.807000000
O     0.733000000    -1.686000000     5.843000000
H     0.994000000    -1.707000000     4.922000000
H     1.464000000    -2.094000000     6.308000000
O    -0.983000000     4.155000000    -4.454000000
H    -1.441000000     3.583000000    -5.070000000
H    -1.120000000     3.744000000    -3.600000000
O     2.628000000    -4.168000000     0.107000000
H     2.686000000    -3.402000000    -0.464000000
H     2.026000000    -3.902000000     0.803000000
O    -1.803000000     1.399000000    -5.607000000
H    -1.869000000     2.075000000    -6.282000000
H    -0.981000000     0.948000000    -5.801000000
O    -3.263000000     0.218000000     0.898000000
H    -2.336000000     0.063000000     0.715000000
H    -3.727000000    -0.341000000     0.275000000
O    -0.073000000     1.967000000     4.801000000
H    -0.722000000     1.340000000     4.484000000
H     0.761000000     1.501000000     4.741000000
O    -3.599000000    -4.588000000    -2.151000000
H    -3.742000000    -4.805000000    -1.229000000
H    -2.707000000    -4.884000000    -2.331000000
O     1.120000000     4.692000000    -1.734000000
H     0.961000000     4.808000000    -0.797000000
H     1.929000000     4.181000000    -1.778000000
O    -2.386000000     6.048000000     2.193000000
H    -2.404000000     5.094000000     2.272000000
H    -1.821000000     6.336000000     2.911000000
O    -2.186000000     0.634000000     3.823000000
H    -2.606000000     0.713000000     4.679000000
H    -2.897000000     0.396000000     3.228000000
O     0.241000000     3.869000000    -7.256000000
H    -0.204000000     4.418000000    -7.902000000
H    -0.058000000     4.204000000    -6.410000000
O     0.235000000     4.524000000     6.375000000
H     0.465000000     4.126000000     7.215000000
H    -0.012000000     3.785000000     5.819000000
O     0.347000000    -7.623000000     1.889000000
H    -0.085000000    -8.396000000     2.251000000
H     0.042000000    -6.899000000     2.436000000
O     3.840000000    -3.568000000     3.464000000
H     3.023000000    -3.216000000     3.113000000
H     3.792000000    -3.394000000     4.404000000
O     6.068000000    -1.610000000     3.639000000
H     5.659000000    -2.464000000     3.778000000
H     5.334000000    -0.995000000     3.612000000
O     4.803000000     0.280000000     1.248000000
H     5.161000000     1.037000000     1.712000000
H     4.196000000    -0.118000000     1.873000000
O    -3.125000000     3.634000000     5.085000000
H    -2.791000000     3.912000000     4.232000000
H    -2.615000000     2.852000000     5.298000000
O     1.964000000    -0.703000000    -5.534000000
H     1.847000000     0.050000000    -4.954000000
H     2.856000000    -1.003000000    -5.361000000
O    -3.889000000     2.852000000    -3.002000000
H    -4.657000000     2.681000000    -2.456000000
H    -4.054000000     3.713000000    -3.386000000
O    -3.427000000     3.102000000    -0.148000000
H    -4.377000000     3.054000000    -0.254000000
H    -3.076000000     2.758000000    -0.969000000
O    -4.811000000    -0.933000000    -1.093000000
H    -5.550000000    -0.373000000    -1.331000000
H    -4.794000000    -1.608000000    -1.772000000
O    -1.541000000    -1.229000000     7.908000000
H    -0.859000000    -1.317000000     7.242000000
H    -1.477000000    -2.033000000     8.424000000
O     2.599000000     0.735000000     5.792000000
H     2.697000000    -0.212000000     5.696000000
H     2.336000000     0.857000000     6.705000000
O    -2.454000000     5.632000000    -1.223000000
H    -1.562000000     5.286000000    -1.262000000
H    -2.987000000     4.888000000    -0.944000000
O     3.673000000    -0.346000000     3.599000000
H     2.759000000    -0.630000000     3.576000000
H     3.661000000     0.459000000     4.117000000
O    -0.313000000    -5.096000000     3.038000000
H    -0.886000000    -4.601000000     3.624000000
H     0.250000000    -4.433000000     2.638000000
O     6.005000000    -5.208000000     3.430000000
H     5.919000000    -6.023000000     3.924000000
H     5.154000000    -4.780000000     3.523000000
O     1.831000000     7.318000000    -1.244000000
H     1.591000000     7.159000000    -0.331000000
H     1.315000000     6.683000000    -1.741000000
O     4.855000000    -3.026000000    -2.487000000
H     4.188000000    -2.483000000    -2.068000000
H     4.501000000    -3.915000000    -2.447000000
O    -0.208000000     5.233000000     0.621000000
H     0.490000000     5.541000000     1.199000000
H    -1.017000000     5.481000000     1.069000000
O     0.374000000    -2.914000000    -5.550000000
H     0.594000000    -1.989000000    -5.662000000
H     1.220000000    -3.350000000    -5.441000000
O    -3.038000000    -3.337000000     1.984000000
H    -3.845000000    -3.499000000     1.497000000
H    -2.351000000    -3.737000000     1.450000000
O    -0.746000000    -5.459000000    -2.358000000
H    -0.219000000    -5.236000000    -3.125000000
H    -0.297000000    -6.209000000    -1.968000000
O     4.614000000     3.114000000     1.857000000
H     3.994000000     3.457000000     1.214000000
H     4.186000000     3.257000000     2.702000000
O    -1.728000000    -2.707000000     4.613000000
H    -0.878000000    -2.305000000     4.789000000
H    -2.058000000    -2.242000000     3.844000000
O     2.802000000    -6.649000000    -0.730000000
H     2.799000000    -5.744000000    -0.418000000
H     1.890000000    -6.825000000    -0.962000000
O    -2.344000000    -5.013000000     5.926000000
H    -2.033000000    -4.232000000     5.468000000
H    -3.203000000    -5.191000000     5.540000000
O    -2.431000000     3.471000000     2.332000000
H    -1.967000000     2.640000000     2.439000000
H    -2.669000000     3.494000000     1.405000000
O     3.178000000    -1.187000000    -1.199000000
H     2.372000000    -0.913000000    -0.762000000
H     3.856000000    -0.621000000    -0.830000000
O    -5.600000000    -1.242000000    -3.900000000
H    -6.553000000    -1.155000000    -3.869000000
H    -5.303000000    -0.457000000    -4.361000000
O     5.093000000    -6.272000000     1.140000000
H     4.278000000    -5.860000000     0.856000000
H     5.308000000    -5.835000000     1.964000000
