144
-2829.83374
O     4.102000000    -4.406000000    -2.734000000
H     4.632000000    -3.609000000    -2.691000000
H     3.199000000    -4.097000000    -2.657000000
O     0.988000000    -2.093000000    -4.499000000
H     0.061000000    -2.025000000    -4.725000000
H     1.234000000    -2.980000000    -4.763000000
O    -1.613000000    -4.972000000    -3.517000000
H    -2.010000000    -5.842000000    -3.532000000
H    -2.134000000    -4.481000000    -2.882000000
O     2.921000000     2.272000000    -1.623000000
H     2.666000000     1.443000000    -2.028000000
H     2.182000000     2.857000000    -1.790000000
O    -0.155000000    -7.102000000    -0.812000000
H     0.573000000    -6.486000000    -0.884000000
H     0.151000000    -7.889000000    -1.264000000
O     7.085000000    -1.426000000     0.317000000
H     7.532000000    -0.649000000    -0.018000000
H     6.757000000    -1.162000000     1.177000000
O    -6.098000000     3.122000000    -2.713000000
H    -5.728000000     3.989000000    -2.550000000
H    -5.340000000     2.568000000    -2.897000000
O     3.109000000     4.019000000     2.695000000
H     3.880000000     3.802000000     3.219000000
H     3.455000000     4.192000000     1.820000000
O    -7.054000000     0.376000000    -2.041000000
H    -6.789000000    -0.358000000    -2.594000000
H    -7.698000000     0.851000000    -2.566000000
O     3.476000000     1.066000000     6.437000000
H     3.503000000     0.261000000     6.953000000
H     3.493000000     0.768000000     5.528000000
O     0.954000000    -5.896000000     4.778000000
H     0.445000000    -6.417000000     4.156000000
H     1.458000000    -5.294000000     4.230000000
O    -5.360000000    -1.540000000    -3.132000000
H    -5.688000000    -2.337000000    -3.548000000
H    -5.365000000    -1.739000000    -2.195000000
O     7.271000000     0.884000000    -1.056000000
H     7.397000000     1.488000000    -1.788000000
H     6.602000000     1.301000000    -0.513000000
O    -0.904000000     2.474000000     5.009000000
H    -1.192000000     1.857000000     4.336000000
H    -1.611000000     3.118000000     5.062000000
O     0.579000000     0.282000000     5.935000000
H     0.495000000    -0.450000000     5.323000000
H     0.070000000     0.987000000     5.537000000
O     0.625000000     4.784000000     2.883000000
H     1.455000000     4.341000000     2.707000000
H     0.229000000     4.278000000     3.593000000
O     4.727000000    -4.454000000     4.255000000
H     5.266000000    -3.663000000     4.254000000
H     4.664000000    -4.699000000     5.179000000
O    -3.986000000     2.754000000     2.754000000
H    -3.325000000     3.150000000     2.187000000
H    -4.331000000     2.021000000     2.245000000
O    -3.371000000    -4.498000000    -1.381000000
H    -4.207000000    -4.894000000    -1.134000000
H    -3.330000000    -3.689000000    -0.871000000
O    -2.963000000    -0.605000000    -4.492000000
H    -2.422000000    -1.394000000    -4.534000000
H    -3.734000000    -0.870000000    -3.991000000
O     5.189000000     1.957000000     3.473000000
H     5.399000000     1.571000000     2.623000000
H     4.289000000     1.679000000     3.646000000
O    -3.840000000    -2.167000000    -0.086000000
H    -4.300000000    -2.705000000     0.559000000
H    -3.705000000    -1.328000000     0.355000000
O    -4.080000000    -0.446000000     2.337000000
H    -4.627000000    -0.173000000     1.601000000
H    -4.658000000    -0.392000000     3.098000000
O    -1.056000000     3.427000000    -4.981000000
H    -0.217000000     3.506000000    -5.434000000
H    -1.610000000     2.933000000    -5.586000000
O     3.990000000    -6.967000000    -1.320000000
H     4.868000000    -7.034000000    -0.946000000
H     4.067000000    -6.290000000    -1.993000000
O     5.305000000    -3.608000000     0.538000000
H     4.504000000    -3.129000000     0.750000000
H     5.981000000    -2.933000000     0.485000000
O     1.668000000    -0.031000000    -2.940000000
H     0.843000000    -0.033000000    -2.456000000
H     1.631000000    -0.820000000    -3.481000000
O    -1.514000000    -2.697000000    -5.466000000
H    -1.818000000    -2.766000000    -6.371000000
H    -1.705000000    -3.554000000    -5.084000000
O    -1.792000000     4.307000000     1.631000000
H    -1.634000000     4.028000000     0.730000000
H    -0.989000000     4.761000000     1.886000000
O     6.236000000     3.599000000     0.872000000
H     5.787000000     2.755000000     0.834000000
H     5.560000000     4.239000000     0.647000000
O    -2.557000000    -2.469000000     3.635000000
H    -3.252000000    -2.282000000     3.004000000
H    -2.391000000    -3.407000000     3.537000000
O    -1.771000000     0.368000000     3.687000000
H    -1.046000000    -0.250000000     3.779000000
H    -2.434000000    -0.113000000     3.191000000
O    -3.936000000     5.678000000     0.513000000
H    -3.427000000     5.182000000     1.154000000
H    -4.205000000     6.469000000     0.980000000
O    -3.653000000     2.058000000    -4.095000000
H    -3.305000000     1.179000000    -4.240000000
H    -2.963000000     2.644000000    -4.408000000
O     2.211000000    -4.110000000     3.067000000
H     3.128000000    -4.280000000     3.279000000
H     2.239000000    -3.674000000     2.216000000
O     8.603000000     0.002000000     2.870000000
H     7.665000000    -0.099000000     2.710000000
H     8.697000000    -0.099000000     3.818000000
O     2.056000000    -4.978000000    -0.645000000
H     2.300000000    -4.138000000    -0.256000000
H     2.878000000    -5.467000000    -0.694000000
O     0.422000000    -1.741000000     3.977000000
H    -0.370000000    -2.192000000     3.686000000
H     1.140000000    -2.299000000     3.677000000
O    -1.370000000     5.098000000    -2.599000000
H    -1.344000000     4.604000000    -3.418000000
H    -1.385000000     6.015000000    -2.873000000
O     5.713000000    -1.941000000    -2.379000000
H     5.808000000    -1.011000000    -2.585000000
H     5.728000000    -1.977000000    -1.423000000
O     1.059000000    -4.728000000    -3.891000000
H     0.139000000    -4.979000000    -3.976000000
H     1.371000000    -5.217000000    -3.130000000
O     4.795000000     1.491000000     0.439000000
H     4.114000000     1.862000000    -0.121000000
H     4.570000000     0.563000000     0.508000000
O    -5.360000000     0.637000000     0.301000000
H    -5.909000000     1.405000000     0.464000000
H    -5.443000000     0.479000000    -0.639000000
O     0.926000000     3.923000000    -1.857000000
H     0.313000000     4.652000000    -1.765000000
H     0.383000000     3.187000000    -2.139000000
O     2.892000000     0.253000000     3.784000000
H     2.030000000     0.629000000     3.606000000
H     3.020000000    -0.392000000     3.089000000
O     6.404000000    -6.209000000     1.106000000
H     6.145000000    -6.424000000     2.002000000
H     6.158000000    -5.290000000     1.000000000
O    -4.225000000     5.162000000    -2.111000000
H    -4.192000000     5.297000000    -1.164000000
H    -3.307000000     5.109000000    -2.378000000
O     5.775000000    -0.683000000     2.746000000
H     4.946000000    -0.937000000     2.341000000
H     5.646000000    -0.846000000     3.680000000
