144
-2801.31065
O     2.564000000    -3.058000000    -5.633000000
H     2.313000000    -3.015000000    -4.710000000
H     2.443000000    -3.977000000    -5.871000000
O    -4.800000000     0.107000000    -5.711000000
H    -4.903000000     1.057000000    -5.659000000
H    -4.074000000    -0.089000000    -5.118000000
O     0.121000000    -4.725000000    -1.625000000
H     0.448000000    -3.882000000    -1.942000000
H     0.490000000    -5.368000000    -2.230000000
O     5.996000000    -0.032000000    -2.681000000
H     6.706000000     0.531000000    -2.372000000
H     6.173000000    -0.883000000    -2.281000000
O    -5.998000000     5.239000000    -0.987000000
H    -5.249000000     4.995000000    -0.444000000
H    -5.662000000     5.215000000    -1.883000000
O     4.933000000     2.639000000    -2.650000000
H     5.472000000     2.327000000    -1.923000000
H     4.386000000     3.324000000    -2.266000000
O     8.323000000     1.780000000     2.831000000
H     7.964000000     2.293000000     2.108000000
H     7.703000000     1.060000000     2.945000000
O    -5.052000000    -2.306000000    -0.954000000
H    -5.987000000    -2.469000000    -0.829000000
H    -4.673000000    -2.401000000    -0.081000000
O     7.320000000     3.351000000     0.744000000
H     6.503000000     2.961000000     0.433000000
H     7.048000000     3.967000000     1.425000000
O     2.699000000    -0.662000000     5.418000000
H     3.162000000    -1.312000000     4.890000000
H     1.778000000    -0.769000000     5.178000000
O    -2.880000000    -1.706000000     3.589000000
H    -2.204000000    -1.057000000     3.395000000
H    -3.702000000    -1.219000000     3.537000000
O     4.773000000    -5.058000000    -0.166000000
H     5.059000000    -5.963000000    -0.045000000
H     5.584000000    -4.565000000    -0.290000000
O    -0.621000000     5.762000000     2.379000000
H     0.175000000     5.303000000     2.113000000
H    -0.401000000     6.154000000     3.224000000
O     7.928000000    -2.825000000     2.562000000
H     8.866000000    -2.683000000     2.433000000
H     7.539000000    -1.955000000     2.471000000
O    -3.650000000    -4.074000000    -3.040000000
H    -3.771000000    -3.125000000    -2.997000000
H    -3.392000000    -4.322000000    -2.152000000
O    -6.121000000    -0.813000000    -2.996000000
H    -5.426000000    -0.736000000    -2.342000000
H    -5.771000000    -0.372000000    -3.770000000
O     1.854000000     3.097000000     3.440000000
H     2.104000000     3.794000000     2.833000000
H     2.649000000     2.574000000     3.544000000
O    -6.616000000     0.251000000     0.466000000
H    -6.220000000     0.845000000    -0.172000000
H    -6.167000000    -0.583000000     0.328000000
O     4.302000000    -5.888000000    -2.997000000
H     4.499000000    -6.631000000    -2.425000000
H     4.724000000    -5.141000000    -2.573000000
O     3.151000000    -3.357000000     1.115000000
H     3.225000000    -2.626000000     0.501000000
H     3.639000000    -4.068000000     0.701000000
O     6.034000000    -1.861000000    -0.195000000
H     5.095000000    -1.678000000    -0.209000000
H     6.347000000    -1.448000000     0.610000000
O     0.442000000     2.756000000    -2.969000000
H     0.015000000     2.716000000    -3.825000000
H    -0.021000000     3.453000000    -2.504000000
O    -2.720000000    -0.506000000    -4.106000000
H    -2.468000000    -1.244000000    -4.662000000
H    -1.896000000    -0.061000000    -3.910000000
O     2.901000000     3.252000000    -1.062000000
H     2.139000000     3.051000000    -1.605000000
H     2.741000000     4.141000000    -0.745000000
O    -2.254000000    -4.873000000    -0.774000000
H    -1.934000000    -5.250000000     0.046000000
H    -1.463000000    -4.697000000    -1.282000000
O    -4.345000000     2.555000000     1.962000000
H    -5.154000000     3.021000000     2.173000000
H    -4.508000000     2.169000000     1.101000000
O     2.577000000     5.347000000     1.717000000
H     2.140000000     5.327000000     0.866000000
H     2.878000000     6.251000000     1.811000000
O    -3.843000000    -3.093000000     1.297000000
H    -3.186000000    -3.787000000     1.241000000
H    -3.536000000    -2.530000000     2.008000000
O    -0.023000000    -0.695000000     3.273000000
H    -0.219000000    -1.575000000     2.950000000
H     0.622000000    -0.351000000     2.655000000
O    -3.438000000     4.810000000     0.076000000
H    -2.981000000     4.083000000     0.498000000
H    -2.955000000     5.589000000     0.352000000
O    -3.697000000     2.961000000    -3.151000000
H    -4.153000000     3.797000000    -3.248000000
H    -2.930000000     3.038000000    -3.718000000
O     3.483000000    -2.546000000     3.649000000
H     4.255000000    -3.064000000     3.876000000
H     3.315000000    -2.755000000     2.730000000
O    -4.975000000    -0.183000000     3.036000000
H    -5.150000000     0.650000000     2.600000000
H    -5.761000000    -0.706000000     2.878000000
O    -5.344000000    -5.324000000     0.934000000
H    -5.711000000    -5.179000000     1.806000000
H    -4.838000000    -4.532000000     0.753000000
O     1.889000000    -5.365000000     2.438000000
H     2.186000000    -6.088000000     1.886000000
H     2.156000000    -4.576000000     1.966000000
O     5.334000000     3.239000000     4.283000000
H     4.718000000     2.528000000     4.105000000
H     5.507000000     3.176000000     5.222000000
O     5.609000000    -2.957000000    -4.108000000
H     5.604000000    -2.372000000    -4.865000000
H     5.098000000    -2.495000000    -3.444000000
O     3.096000000    -2.466000000    -2.719000000
H     3.146000000    -2.155000000    -1.816000000
H     3.156000000    -1.671000000    -3.250000000
O     3.467000000     0.184000000    -3.569000000
H     4.380000000     0.321000000    -3.318000000
H     2.976000000     0.809000000    -3.035000000
O     1.025000000     5.544000000    -0.351000000
H     0.105000000     5.366000000    -0.548000000
H     1.241000000     6.307000000    -0.887000000
O    -0.321000000     0.007000000    -3.158000000
H    -0.147000000     0.948000000    -3.124000000
H    -0.081000000    -0.312000000    -2.288000000
O     5.058000000     1.984000000    -0.043000000
H     4.314000000     2.510000000    -0.336000000
H     4.662000000     1.194000000     0.326000000
O    -5.378000000     2.095000000    -0.876000000
H    -5.952000000     2.839000000    -1.057000000
H    -4.744000000     2.103000000    -1.594000000
O     3.846000000     1.361000000     3.698000000
H     3.519000000     0.764000000     4.370000000
H     3.662000000     0.916000000     2.871000000
O     7.240000000    -4.043000000    -1.040000000
H     8.071000000    -4.205000000    -0.593000000
H     6.911000000    -3.235000000    -0.647000000
O    -1.219000000     4.716000000    -1.786000000
H    -1.290000000     5.545000000    -2.258000000
H    -2.076000000     4.599000000    -1.376000000
O     6.080000000    -0.350000000     2.226000000
H     5.340000000     0.024000000     1.747000000
H     6.039000000     0.062000000     3.089000000
O     1.651000000    -6.886000000    -0.035000000
H     1.247000000    -6.078000000    -0.353000000
H     2.248000000    -7.147000000    -0.736000000
