144
-2794.78856
O    -1.312000000     1.574000000    -2.758000000
H    -0.611000000     1.972000000    -3.275000000
H    -0.985000000     0.701000000    -2.543000000
O    -5.895000000    -1.755000000    -1.366000000
H    -5.423000000    -1.637000000    -0.542000000
H    -6.739000000    -1.327000000    -1.222000000
O    -7.455000000    -1.672000000     3.918000000
H    -6.575000000    -1.909000000     3.624000000
H    -7.669000000    -2.326000000     4.584000000
O    -3.381000000    -0.533000000    -4.321000000
H    -3.407000000     0.241000000    -3.759000000
H    -4.288000000    -0.654000000    -4.604000000
O    -4.866000000    -5.044000000     2.417000000
H    -4.237000000    -4.362000000     2.652000000
H    -4.489000000    -5.461000000     1.642000000
O     0.473000000     5.191000000     0.200000000
H    -0.225000000     4.594000000     0.471000000
H     0.049000000     6.049000000     0.154000000
O     6.365000000    -0.729000000    -3.800000000
H     5.928000000    -1.348000000    -3.214000000
H     6.135000000     0.132000000    -3.453000000
O     0.331000000     2.233000000    -4.945000000
H     1.057000000     1.971000000    -4.379000000
H     0.754000000     2.586000000    -5.729000000
O     1.994000000     3.272000000    -2.561000000
H     2.330000000     2.535000000    -3.072000000
H     1.645000000     2.871000000    -1.765000000
O    -0.176000000    -2.954000000     1.291000000
H     0.322000000    -2.172000000     1.526000000
H    -0.428000000    -2.813000000     0.378000000
O     3.011000000    -2.219000000    -3.608000000
H     3.023000000    -1.402000000    -3.110000000
H     3.716000000    -2.743000000    -3.228000000
O    -0.725000000    -1.247000000    -5.026000000
H    -1.616000000    -0.991000000    -4.788000000
H    -0.591000000    -0.868000000    -5.895000000
O    -2.452000000    -3.715000000     2.761000000
H    -1.806000000    -3.410000000     2.124000000
H    -1.975000000    -4.344000000     3.303000000
O     2.047000000     3.885000000     4.635000000
H     1.639000000     4.341000000     3.900000000
H     1.807000000     2.967000000     4.510000000
O     0.395000000    -3.337000000    -4.106000000
H     1.322000000    -3.109000000    -4.035000000
H    -0.018000000    -2.554000000    -4.469000000
O    -3.849000000    -1.836000000     4.029000000
H    -3.751000000    -2.136000000     4.933000000
H    -3.200000000    -2.340000000     3.538000000
O     2.624000000    -3.020000000    -0.595000000
H     1.684000000    -3.072000000    -0.770000000
H     2.957000000    -2.413000000    -1.256000000
O     1.824000000     1.048000000     4.548000000
H     1.148000000     0.755000000     5.160000000
H     1.796000000     0.408000000     3.837000000
O     4.844000000     4.436000000    -2.936000000
H     3.927000000     4.259000000    -2.727000000
H     4.900000000     4.323000000    -3.885000000
O     8.524000000     1.861000000    -0.996000000
H     7.786000000     1.558000000    -0.468000000
H     8.516000000     1.295000000    -1.768000000
O    -0.326000000     0.072000000     6.001000000
H    -1.218000000     0.310000000     5.747000000
H    -0.335000000    -0.884000000     6.040000000
O     4.733000000    -2.497000000     1.350000000
H     4.157000000    -2.729000000     0.621000000
H     5.127000000    -3.328000000     1.616000000
O     3.550000000     1.333000000    -3.745000000
H     3.514000000     0.750000000    -2.986000000
H     3.620000000     0.744000000    -4.496000000
O     3.077000000     5.559000000    -0.753000000
H     2.169000000     5.380000000    -0.505000000
H     3.591000000     4.928000000    -0.248000000
O    -5.077000000     4.786000000    -2.475000000
H    -5.157000000     4.153000000    -3.189000000
H    -5.370000000     4.310000000    -1.698000000
O    -5.615000000    -2.959000000    -3.939000000
H    -6.084000000    -2.259000000    -4.393000000
H    -5.556000000    -2.659000000    -3.032000000
O    -1.329000000     3.321000000     0.323000000
H    -1.454000000     3.007000000    -0.573000000
H    -1.577000000     2.578000000     0.874000000
O    -6.972000000     0.309000000     0.856000000
H    -7.074000000     0.608000000    -0.047000000
H    -7.637000000    -0.371000000     0.960000000
O    -4.763000000     4.927000000     0.390000000
H    -4.065000000     5.539000000     0.155000000
H    -4.312000000     4.095000000     0.538000000
O    -5.488000000    -1.923000000     1.856000000
H    -5.892000000    -1.078000000     1.655000000
H    -4.968000000    -1.758000000     2.642000000
O    -6.282000000    -5.035000000    -1.244000000
H    -5.691000000    -4.328000000    -0.985000000
H    -6.765000000    -5.248000000    -0.445000000
O    -5.452000000     1.731000000     2.901000000
H    -5.809000000     1.217000000     2.176000000
H    -6.107000000     2.412000000     3.056000000
O    -3.509000000    -4.481000000    -1.582000000
H    -4.079000000    -4.513000000    -2.350000000
H    -3.301000000    -5.398000000    -1.400000000
O    -3.457000000     3.629000000     3.448000000
H    -4.078000000     2.901000000     3.487000000
H    -2.818000000     3.435000000     4.135000000
O    -7.140000000     1.529000000    -1.434000000
H    -7.556000000     2.368000000    -1.632000000
H    -6.280000000     1.583000000    -1.852000000
O     6.725000000     4.764000000    -1.083000000
H     6.235000000     4.749000000    -1.905000000
H     6.145000000     4.340000000    -0.451000000
O     5.477000000    -2.781000000    -2.374000000
H     5.956000000    -3.118000000    -3.131000000
H     6.060000000    -2.939000000    -1.631000000
O     3.526000000    -0.891000000    -5.826000000
H     3.251000000    -1.321000000    -5.016000000
H     2.840000000    -1.109000000    -6.458000000
O     4.358000000     1.035000000     2.585000000
H     4.202000000     0.975000000     1.643000000
H     3.795000000     0.360000000     2.965000000
O     6.242000000    -0.476000000     0.107000000
H     5.448000000    -0.078000000    -0.251000000
H     5.923000000    -1.180000000     0.672000000
O     6.213000000     2.043000000    -2.784000000
H     5.699000000     2.388000000    -3.515000000
H     5.599000000     2.022000000    -2.050000000
O     2.231000000    -1.702000000     2.783000000
H     2.358000000    -2.276000000     3.538000000
H     2.889000000    -1.990000000     2.150000000
O    -1.278000000    -6.333000000    -0.821000000
H    -0.657000000    -6.670000000    -0.174000000
H    -0.928000000    -5.477000000    -1.067000000
O    -0.504000000    -3.813000000    -1.470000000
H    -1.423000000    -3.567000000    -1.579000000
H    -0.151000000    -3.817000000    -2.360000000
O    -3.823000000     2.225000000    -2.030000000
H    -4.253000000     2.484000000    -2.844000000
H    -2.967000000     1.896000000    -2.305000000
O    -2.912000000     0.579000000     5.082000000
H    -3.271000000     0.911000000     5.904000000
H    -3.491000000    -0.146000000     4.843000000
O     5.082000000     1.922000000     5.021000000
H     5.946000000     1.547000000     4.850000000
H     4.587000000     1.759000000     4.217000000
O     4.186000000     3.476000000     0.775000000
H     3.808000000     2.653000000     0.467000000
H     4.711000000     3.229000000     1.536000000
