144
-2781.34665
O    -0.919000000     2.119000000    -1.769000000
H    -0.552000000     2.262000000    -2.641000000
H    -0.732000000     1.200000000    -1.577000000
O    -5.443000000    -3.588000000     0.175000000
H    -5.793000000    -2.786000000    -0.214000000
H    -4.586000000    -3.334000000     0.517000000
O     3.976000000     5.122000000    -1.508000000
H     3.394000000     5.771000000    -1.113000000
H     3.399000000     4.394000000    -1.742000000
O    -3.374000000    -0.842000000    -3.328000000
H    -3.313000000     0.064000000    -3.025000000
H    -4.217000000    -0.886000000    -3.780000000
O     7.437000000     0.982000000    -2.670000000
H     6.803000000     0.300000000    -2.891000000
H     6.930000000     1.633000000    -2.186000000
O    -3.628000000     5.974000000     3.287000000
H    -4.362000000     6.370000000     2.818000000
H    -3.817000000     5.035000000     3.280000000
O    -0.142000000     6.346000000     2.478000000
H     0.665000000     5.831000000     2.511000000
H    -0.843000000     5.694000000     2.479000000
O    -1.354000000     4.170000000     3.910000000
H    -1.524000000     4.240000000     4.850000000
H    -2.068000000     3.627000000     3.578000000
O     1.361000000     3.363000000     3.516000000
H     1.007000000     2.493000000     3.329000000
H     0.592000000     3.932000000     3.549000000
O     4.319000000    -3.410000000    -2.034000000
H     4.570000000    -3.584000000    -2.942000000
H     3.840000000    -2.582000000    -2.073000000
O     2.769000000     2.325000000    -2.414000000
H     2.770000000     1.391000000    -2.207000000
H     2.758000000     2.358000000    -3.371000000
O     6.881000000    -3.355000000    -0.801000000
H     6.223000000    -3.022000000    -1.411000000
H     7.144000000    -4.199000000    -1.170000000
O    -0.366000000    -3.898000000     2.083000000
H     0.023000000    -4.126000000     1.239000000
H    -0.560000000    -4.741000000     2.493000000
O     1.252000000    -3.830000000    -2.966000000
H     1.615000000    -2.955000000    -2.830000000
H     1.944000000    -4.308000000    -3.422000000
O    -1.590000000    -1.216000000    -5.390000000
H    -2.116000000    -1.034000000    -4.610000000
H    -2.215000000    -1.181000000    -6.114000000
O    -2.086000000    -2.571000000     5.597000000
H    -1.923000000    -1.805000000     6.147000000
H    -1.449000000    -2.495000000     4.886000000
O     2.445000000     2.482000000     5.712000000
H     2.413000000     2.977000000     4.893000000
H     1.765000000     1.816000000     5.616000000
O     2.026000000    -4.123000000    -5.835000000
H     1.519000000    -3.787000000    -5.096000000
H     2.907000000    -3.772000000    -5.700000000
O    -1.222000000    -4.002000000    -4.359000000
H    -1.404000000    -4.026000000    -3.419000000
H    -1.047000000    -3.080000000    -4.545000000
O     0.456000000    -4.901000000    -0.549000000
H     0.989000000    -5.674000000    -0.731000000
H     0.719000000    -4.266000000    -1.216000000
O     0.203000000     0.935000000     4.470000000
H    -0.491000000     0.767000000     5.107000000
H     0.331000000     0.096000000     4.028000000
O     5.642000000     3.129000000    -3.002000000
H     5.104000000     2.643000000    -2.377000000
H     5.639000000     4.028000000    -2.672000000
O     7.229000000    -0.201000000     1.017000000
H     6.657000000    -0.922000000     1.279000000
H     6.633000000     0.464000000     0.672000000
O     3.263000000     1.947000000    -5.398000000
H     2.595000000     1.485000000    -5.904000000
H     4.091000000     1.692000000    -5.807000000
O    -1.723000000     0.237000000     6.396000000
H    -1.198000000     0.626000000     7.096000000
H    -2.619000000     0.517000000     6.584000000
O     2.395000000    -2.985000000     0.417000000
H     1.522000000    -2.715000000     0.133000000
H     2.367000000    -2.924000000     1.371000000
O     2.862000000    -1.239000000    -5.439000000
H     2.706000000    -1.605000000    -4.569000000
H     2.322000000    -0.449000000    -5.467000000
O     1.529000000     4.346000000     0.406000000
H     1.811000000     3.480000000     0.698000000
H     0.610000000     4.401000000     0.670000000
O    -1.086000000     4.082000000     0.619000000
H    -0.853000000     3.385000000     0.006000000
H    -2.030000000     3.986000000     0.743000000
O    -6.404000000    -1.015000000     0.076000000
H    -6.366000000    -0.667000000    -0.815000000
H    -7.165000000    -0.588000000     0.468000000
O    -3.916000000     3.576000000    -0.147000000
H    -4.510000000     4.255000000    -0.466000000
H    -4.329000000     3.253000000     0.654000000
O    -5.600000000    -2.913000000     3.591000000
H    -5.564000000    -1.969000000     3.747000000
H    -5.007000000    -3.286000000     4.242000000
O    -5.653000000     0.519000000     2.983000000
H    -5.731000000     0.087000000     2.133000000
H    -6.289000000     1.233000000     2.948000000
O    -3.114000000    -3.599000000    -1.934000000
H    -3.104000000    -2.646000000    -2.023000000
H    -3.922000000    -3.787000000    -1.456000000
O    -4.100000000     3.440000000     3.640000000
H    -4.928000000     3.331000000     3.174000000
H    -4.154000000     2.825000000     4.372000000
O     3.476000000    -0.114000000    -7.713000000
H     4.307000000    -0.509000000    -7.977000000
H     3.212000000    -0.608000000    -6.937000000
O     4.782000000    -3.962000000    -4.616000000
H     4.840000000    -4.906000000    -4.761000000
H     5.425000000    -3.588000000    -5.219000000
O     3.903000000     2.140000000     2.114000000
H     3.906000000     1.232000000     2.417000000
H     3.201000000     2.557000000     2.613000000
O     0.485000000     0.458000000    -5.988000000
H    -0.199000000    -0.210000000    -6.022000000
H     0.419000000     0.911000000    -6.829000000
O     4.227000000    -0.265000000     3.177000000
H     4.419000000    -0.920000000     2.506000000
H     3.975000000    -0.776000000     3.946000000
O     4.999000000    -2.089000000     0.929000000
H     5.666000000    -2.341000000     0.290000000
H     4.178000000    -2.409000000     0.556000000
O     5.138000000    -0.230000000    -3.559000000
H     4.403000000    -0.422000000    -2.977000000
H     4.956000000    -0.738000000    -4.350000000
O     0.168000000    -1.438000000     2.913000000
H     0.193000000    -2.380000000     2.744000000
H     0.466000000    -1.040000000     2.096000000
O    -2.340000000    -5.359000000     0.461000000
H    -2.371000000    -4.850000000     1.271000000
H    -1.412000000    -5.379000000     0.226000000
O    -4.304000000     1.987000000    -2.537000000
H    -4.063000000     2.678000000    -3.154000000
H    -3.993000000     2.303000000    -1.689000000
O    -4.613000000     1.370000000     5.293000000
H    -4.881000000     0.843000000     4.540000000
H    -4.798000000     0.815000000     6.051000000
O     0.887000000     4.697000000    -2.419000000
H     0.626000000     4.130000000    -3.145000000
H     0.936000000     4.112000000    -1.663000000
O     5.181000000     1.992000000    -0.377000000
H     4.667000000     1.384000000    -0.910000000
H     4.686000000     2.072000000     0.438000000
