144
-2833.38507
O    -1.839000000     1.531000000    -3.075000000
H    -1.430000000     0.797000000    -2.618000000
H    -1.568000000     1.426000000    -3.987000000
O    -5.224000000    -0.239000000    -3.526000000
H    -5.966000000     0.054000000    -4.054000000
H    -4.946000000     0.543000000    -3.049000000
O     0.821000000    -6.797000000     0.474000000
H     1.011000000    -6.104000000    -0.158000000
H     1.678000000    -7.164000000     0.692000000
O    -5.113000000    -0.348000000     2.824000000
H    -4.677000000     0.256000000     3.424000000
H    -5.520000000    -1.001000000     3.394000000
O    -2.914000000     5.481000000     0.382000000
H    -2.426000000     5.810000000    -0.372000000
H    -3.548000000     4.869000000     0.008000000
O     0.839000000     3.918000000     2.739000000
H    -0.055000000     3.657000000     2.960000000
H     0.733000000     4.602000000     2.078000000
O    -0.148000000     6.131000000     1.464000000
H    -1.084000000     6.227000000     1.287000000
H     0.258000000     6.101000000     0.597000000
O     7.201000000    -0.313000000    -3.447000000
H     6.254000000    -0.452000000    -3.458000000
H     7.533000000    -0.975000000    -2.842000000
O     3.608000000     2.063000000    -4.102000000
H     4.038000000     2.857000000    -3.785000000
H     3.986000000     1.359000000    -3.574000000
O     3.571000000    -3.698000000    -6.370000000
H     2.850000000    -3.172000000    -6.025000000
H     4.350000000    -3.352000000    -5.934000000
O     1.070000000    -4.491000000    -0.920000000
H     1.827000000    -3.905000000    -0.946000000
H     0.434000000    -4.036000000    -0.367000000
O     1.207000000    -2.777000000    -4.114000000
H     1.691000000    -2.476000000    -3.346000000
H     1.164000000    -3.728000000    -4.013000000
O    -1.349000000    -1.593000000    -5.556000000
H    -0.513000000    -1.949000000    -5.255000000
H    -1.120000000    -1.047000000    -6.307000000
O    -2.255000000    -4.269000000    -4.009000000
H    -2.638000000    -3.444000000    -4.307000000
H    -2.092000000    -4.134000000    -3.076000000
O    -0.890000000    -3.780000000     1.080000000
H    -1.561000000    -3.702000000     0.401000000
H    -0.669000000    -4.711000000     1.092000000
O     3.563000000     3.113000000     2.732000000
H     2.659000000     3.224000000     3.028000000
H     3.918000000     2.429000000     3.300000000
O     4.279000000    -5.639000000     0.154000000
H     4.468000000    -5.136000000    -0.639000000
H     4.290000000    -6.552000000    -0.133000000
O     2.113000000     5.955000000     4.504000000
H     1.902000000     5.122000000     4.083000000
H     1.498000000     6.580000000     4.120000000
O    -6.149000000     5.275000000     1.305000000
H    -5.707000000     4.779000000     0.615000000
H    -5.438000000     5.632000000     1.836000000
O    -3.046000000    -1.595000000    -3.440000000
H    -2.459000000    -1.265000000    -4.120000000
H    -3.916000000    -1.304000000    -3.712000000
O    -2.628000000    -2.508000000     3.295000000
H    -2.989000000    -1.628000000     3.401000000
H    -2.742000000    -2.703000000     2.365000000
O     1.438000000    -5.519000000    -3.626000000
H     1.137000000    -5.462000000    -2.719000000
H     2.240000000    -6.039000000    -3.579000000
O     0.515000000    -0.390000000     3.789000000
H    -0.154000000    -1.037000000     4.012000000
H     0.147000000     0.089000000     3.046000000
O     5.778000000     3.224000000    -2.829000000
H     6.277000000     3.842000000    -2.295000000
H     5.535000000     2.525000000    -2.222000000
O     4.254000000    -4.159000000    -2.358000000
H     3.723000000    -4.581000000    -3.034000000
H     3.662000000    -3.527000000    -1.949000000
O     4.493000000    -1.056000000    -3.410000000
H     3.933000000    -1.260000000    -2.661000000
H     4.043000000    -1.447000000    -4.159000000
O     6.677000000    -1.727000000     2.551000000
H     5.883000000    -1.459000000     2.089000000
H     6.489000000    -1.552000000     3.473000000
O     0.348000000     3.292000000    -0.608000000
H     1.241000000     3.292000000    -0.951000000
H     0.218000000     2.404000000    -0.277000000
O    -3.380000000     4.404000000     4.618000000
H    -3.022000000     4.654000000     5.469000000
H    -4.326000000     4.361000000     4.760000000
O    -1.753000000     4.264000000    -1.873000000
H    -1.946000000     3.473000000    -2.375000000
H    -0.987000000     4.032000000    -1.347000000
O    -5.038000000     3.500000000    -0.409000000
H    -4.718000000     3.295000000    -1.288000000
H    -5.327000000     2.659000000    -0.057000000
O    -4.408000000    -2.429000000     1.222000000
H    -4.439000000    -2.161000000     0.303000000
H    -4.757000000    -1.677000000     1.702000000
O    -5.646000000    -1.554000000    -1.101000000
H    -6.455000000    -1.074000000    -0.922000000
H    -5.365000000    -1.237000000    -1.960000000
O    -7.643000000     3.075000000     2.271000000
H    -7.234000000     3.893000000     1.989000000
H    -7.078000000     2.389000000     1.915000000
O    -6.053000000     1.183000000     0.729000000
H    -5.729000000     0.447000000     1.248000000
H    -6.518000000     0.775000000    -0.002000000
O    -1.436000000     2.905000000     3.938000000
H    -2.092000000     3.452000000     4.370000000
H    -0.841000000     2.643000000     4.641000000
O     2.978000000     2.956000000    -0.568000000
H     3.615000000     2.290000000    -0.828000000
H     3.300000000     3.279000000     0.274000000
O     8.476000000    -2.377000000     0.458000000
H     8.052000000    -2.298000000     1.313000000
H     7.805000000    -2.104000000    -0.168000000
O     5.850000000    -2.841000000    -5.224000000
H     6.699000000    -2.692000000    -5.640000000
H     5.986000000    -2.599000000    -4.308000000
O     2.615000000    -1.169000000    -5.605000000
H     1.870000000    -1.480000000    -5.089000000
H     2.325000000    -0.330000000    -5.961000000
O     4.353000000    -0.818000000     1.651000000
H     4.006000000    -0.825000000     0.759000000
H     3.607000000    -1.062000000     2.200000000
O     6.182000000    -2.198000000    -1.434000000
H     5.291000000    -1.853000000    -1.385000000
H     6.069000000    -3.148000000    -1.476000000
O     2.330000000    -2.374000000     3.235000000
H     1.835000000    -3.066000000     3.675000000
H     1.835000000    -1.575000000     3.415000000
O    -2.859000000    -3.725000000    -0.883000000
H    -3.228000000    -2.972000000    -1.344000000
H    -3.556000000    -4.381000000    -0.899000000
O    -3.677000000     6.557000000     2.938000000
H    -3.287000000     6.412000000     2.076000000
H    -3.362000000     5.825000000     3.469000000
O    -4.394000000     2.405000000    -3.034000000
H    -4.696000000     2.564000000    -3.928000000
H    -3.461000000     2.211000000    -3.126000000
O    -3.954000000     0.896000000     4.750000000
H    -4.415000000     0.923000000     5.588000000
H    -3.311000000     1.602000000     4.807000000
O     5.154000000     1.421000000    -1.000000000
H     4.670000000     0.598000000    -0.932000000
H     5.723000000     1.428000000    -0.231000000
