144
-2830.40215
O     2.346000000     2.253000000     0.441000000
H     2.344000000     3.098000000    -0.009000000
H     1.660000000     1.747000000     0.005000000
O     3.860000000    -4.267000000     2.777000000
H     4.054000000    -5.054000000     2.267000000
H     4.552000000    -3.651000000     2.538000000
O     1.828000000     2.760000000    -5.559000000
H     2.183000000     2.844000000    -4.674000000
H     0.881000000     2.705000000    -5.433000000
O    -1.609000000     2.415000000     4.349000000
H    -2.278000000     2.923000000     3.892000000
H    -0.779000000     2.750000000     4.009000000
O    -1.020000000    -4.382000000     1.160000000
H    -0.358000000    -4.738000000     0.567000000
H    -0.525000000    -4.101000000     1.930000000
O    -0.259000000     0.087000000    -4.095000000
H     0.058000000    -0.198000000    -4.952000000
H    -1.060000000     0.574000000    -4.286000000
O     1.753000000     4.632000000    -0.661000000
H     2.419000000     5.314000000    -0.755000000
H     0.962000000     5.017000000    -1.039000000
O     3.562000000     0.657000000    -6.245000000
H     2.864000000     1.302000000    -6.128000000
H     3.723000000     0.316000000    -5.365000000
O    -1.759000000    -2.304000000     3.912000000
H    -2.156000000    -3.129000000     4.192000000
H    -2.344000000    -1.628000000     4.254000000
O    -3.000000000     0.042000000     4.628000000
H    -2.392000000     0.782000000     4.608000000
H    -3.509000000     0.129000000     3.822000000
O    -0.300000000     7.767000000    -0.249000000
H     0.061000000     8.300000000    -0.957000000
H    -0.651000000     6.992000000    -0.687000000
O    -1.193000000     6.074000000     3.677000000
H    -1.632000000     5.330000000     3.264000000
H    -1.309000000     5.929000000     4.616000000
O     1.889000000    -6.670000000    -3.301000000
H     2.209000000    -6.106000000    -4.005000000
H     2.385000000    -6.396000000    -2.530000000
O     3.466000000    -4.783000000    -1.437000000
H     3.061000000    -4.993000000    -0.595000000
H     4.161000000    -4.161000000    -1.220000000
O    -4.056000000    -1.137000000    -2.627000000
H    -3.172000000    -1.421000000    -2.393000000
H    -4.429000000    -0.816000000    -1.806000000
O     1.035000000    -4.812000000     3.361000000
H     1.561000000    -5.437000000     2.863000000
H     1.576000000    -4.023000000     3.403000000
O     6.412000000    -1.627000000    -4.064000000
H     5.539000000    -1.890000000    -3.773000000
H     6.252000000    -1.041000000    -4.804000000
O    -5.804000000    -2.047000000     3.076000000
H    -4.913000000    -2.043000000     2.726000000
H    -6.031000000    -2.974000000     3.143000000
O     0.874000000     2.454000000     3.020000000
H     1.441000000     3.138000000     3.377000000
H     0.975000000     2.531000000     2.071000000
O    -4.177000000     0.804000000     2.277000000
H    -3.602000000     1.419000000     1.822000000
H    -4.756000000     0.467000000     1.593000000
O    -3.791000000     5.187000000    -0.018000000
H    -4.240000000     4.935000000     0.788000000
H    -3.333000000     4.394000000    -0.295000000
O    -1.815000000     5.796000000    -4.056000000
H    -2.505000000     6.162000000    -4.610000000
H    -2.188000000     4.985000000    -3.713000000
O     1.261000000     6.258000000    -3.945000000
H     0.704000000     5.616000000    -3.506000000
H     1.163000000     7.056000000    -3.424000000
O     0.555000000    -1.943000000     5.291000000
H    -0.116000000    -2.146000000     4.640000000
H     0.929000000    -1.112000000     4.999000000
O     1.976000000    -6.262000000     1.172000000
H     1.217000000    -6.152000000     0.599000000
H     2.154000000    -7.203000000     1.155000000
O     0.327000000    -5.843000000    -1.115000000
H    -0.498000000    -5.912000000    -1.595000000
H     0.998000000    -6.075000000    -1.758000000
O    -0.912000000     2.855000000    -5.682000000
H    -1.513000000     2.618000000    -6.389000000
H    -1.464000000     3.295000000    -5.036000000
O    -4.745000000     1.872000000    -1.426000000
H    -4.658000000     1.042000000    -0.959000000
H    -3.970000000     2.373000000    -1.169000000
O     5.712000000    -2.399000000     2.293000000
H     6.248000000    -2.648000000     3.047000000
H     5.181000000    -1.668000000     2.608000000
O     5.361000000    -3.045000000    -0.718000000
H     5.195000000    -2.140000000    -0.983000000
H     6.268000000    -3.043000000    -0.412000000
O    -0.445000000    -4.275000000    -4.233000000
H     0.135000000    -3.759000000    -3.672000000
H    -0.017000000    -4.269000000    -5.089000000
O    -2.921000000     4.239000000     2.682000000
H    -2.852000000     3.648000000     1.932000000
H    -3.860000000     4.394000000     2.779000000
O    -5.087000000     6.157000000    -2.136000000
H    -4.560000000     5.831000000    -1.406000000
H    -5.448000000     6.985000000    -1.819000000
O    -3.412000000    -2.724000000     1.767000000
H    -2.737000000    -2.535000000     2.419000000
H    -3.131000000    -3.546000000     1.363000000
O     3.000000000    -4.372000000    -4.422000000
H     3.139000000    -3.868000000    -5.224000000
H     2.487000000    -3.792000000    -3.860000000
O     3.900000000     0.605000000    -3.319000000
H     3.690000000     1.467000000    -2.959000000
H     4.108000000     0.070000000    -2.554000000
O    -2.614000000     3.319000000    -3.358000000
H    -2.352000000     3.319000000    -2.438000000
H    -2.881000000     2.416000000    -3.531000000
O     3.308000000     3.324000000    -3.057000000
H     4.167000000     3.587000000    -2.728000000
H     2.696000000     3.933000000    -2.643000000
O     1.746000000     0.688000000     5.149000000
H     1.655000000     1.290000000     5.888000000
H     1.136000000     1.022000000     4.491000000
O     5.174000000    -0.465000000    -0.757000000
H     5.032000000    -0.062000000     0.100000000
H     5.836000000     0.087000000    -1.174000000
O    -1.438000000    -1.837000000    -1.853000000
H    -1.313000000    -1.037000000    -1.343000000
H    -1.080000000    -1.628000000    -2.716000000
O    -4.763000000    -0.518000000     0.031000000
H    -4.335000000    -1.240000000     0.490000000
H    -5.654000000    -0.830000000    -0.129000000
O     4.763000000     1.274000000     1.391000000
H     4.605000000     0.757000000     2.181000000
H     3.889000000     1.476000000     1.058000000
O     5.346000000    -5.869000000     1.127000000
H     5.480000000    -4.926000000     1.029000000
H     5.997000000    -6.265000000     0.547000000
O    -0.687000000     5.369000000    -1.671000000
H    -1.376000000     4.874000000    -1.229000000
H    -1.082000000     5.643000000    -2.499000000
O     1.315000000    -2.330000000    -3.217000000
H     1.150000000    -1.421000000    -3.465000000
H     1.717000000    -2.272000000    -2.350000000
O     3.971000000    -0.280000000     4.029000000
H     3.089000000     0.085000000     4.092000000
H     3.980000000    -0.997000000     4.663000000
O    -2.814000000    -4.042000000    -0.692000000
H    -2.457000000    -3.415000000    -1.320000000
H    -2.119000000    -4.156000000    -0.044000000
