144
-2791.71529
O     5.732000000    -2.114000000    -2.015000000
H     6.616000000    -1.945000000    -2.340000000
H     5.631000000    -3.064000000    -2.079000000
O     1.453000000    -6.274000000    -3.243000000
H     1.763000000    -5.378000000    -3.378000000
H     0.663000000    -6.176000000    -2.711000000
O     1.983000000     4.047000000    -1.586000000
H     1.226000000     3.668000000    -2.032000000
H     1.682000000     4.198000000    -0.690000000
O    -2.457000000    -4.996000000     1.136000000
H    -1.997000000    -5.549000000     1.768000000
H    -2.905000000    -4.342000000     1.672000000
O     2.726000000    -3.729000000    -3.289000000
H     3.555000000    -3.301000000    -3.072000000
H     2.869000000    -4.102000000    -4.158000000
O     2.499000000    -0.936000000    -5.240000000
H     2.081000000    -1.331000000    -4.475000000
H     3.323000000    -0.582000000    -4.906000000
O    -5.390000000     0.226000000     3.792000000
H    -4.845000000    -0.202000000     3.132000000
H    -4.820000000     0.890000000     4.179000000
O     3.881000000    -0.770000000     2.850000000
H     4.484000000    -0.677000000     2.112000000
H     3.440000000     0.078000000     2.908000000
O     1.428000000     6.024000000     0.826000000
H     1.583000000     5.083000000     0.899000000
H     0.632000000     6.176000000     1.336000000
O    -0.771000000     0.115000000    -4.346000000
H    -0.376000000    -0.377000000    -5.066000000
H    -1.464000000     0.630000000    -4.759000000
O     3.320000000     8.033000000     0.907000000
H     3.196000000     8.657000000     0.192000000
H     2.765000000     7.289000000     0.674000000
O    -5.962000000    -0.764000000     0.331000000
H    -6.698000000    -1.260000000    -0.029000000
H    -5.187000000    -1.179000000    -0.046000000
O     4.729000000     0.295000000    -3.794000000
H     5.468000000     0.205000000    -4.396000000
H     4.950000000    -0.275000000    -3.057000000
O    -2.731000000    -1.681000000    -3.191000000
H    -3.328000000    -0.963000000    -2.983000000
H    -1.963000000    -1.253000000    -3.570000000
O    -6.734000000     1.636000000     1.496000000
H    -6.230000000     1.700000000     2.307000000
H    -6.400000000     0.847000000     1.068000000
O     2.630000000     3.087000000     5.657000000
H     2.017000000     3.808000000     5.513000000
H     2.407000000     2.752000000     6.526000000
O     3.957000000     2.788000000     0.967000000
H     3.227000000     3.122000000     0.445000000
H     4.591000000     3.505000000     0.978000000
O     1.621000000    -5.055000000     1.754000000
H     2.052000000    -4.388000000     2.288000000
H     0.740000000    -5.124000000     2.122000000
O    -4.458000000     0.086000000    -2.149000000
H    -4.629000000     1.025000000    -2.079000000
H    -5.311000000    -0.324000000    -2.005000000
O    -2.067000000    -4.600000000    -3.527000000
H    -1.741000000    -4.731000000    -4.418000000
H    -2.233000000    -3.659000000    -3.469000000
O     0.261000000     2.458000000    -2.709000000
H    -0.324000000     1.700000000    -2.710000000
H     1.064000000     2.141000000    -3.124000000
O    -0.830000000    -6.309000000    -1.484000000
H    -1.268000000    -6.146000000    -0.649000000
H    -1.273000000    -5.729000000    -2.104000000
O    -4.449000000    -3.528000000     2.160000000
H    -5.197000000    -4.104000000     2.000000000
H    -4.590000000    -3.193000000     3.046000000
O     0.161000000     4.781000000     4.131000000
H     0.771000000     5.425000000     3.772000000
H    -0.031000000     4.197000000     3.397000000
O    -1.128000000     6.396000000     1.837000000
H    -1.045000000     5.691000000     1.195000000
H    -1.931000000     6.853000000     1.589000000
O     6.101000000    -1.840000000     0.576000000
H     5.930000000    -0.935000000     0.834000000
H     5.888000000    -1.868000000    -0.356000000
O    -3.121000000     3.703000000     2.889000000
H    -2.780000000     4.396000000     3.454000000
H    -2.349000000     3.195000000     2.640000000
O    -0.146000000     0.890000000     3.840000000
H    -0.585000000     1.703000000     3.589000000
H     0.781000000     1.124000000     3.893000000
O    -2.086000000    -3.112000000     5.438000000
H    -2.985000000    -3.416000000     5.563000000
H    -2.167000000    -2.354000000     4.859000000
O     3.046000000     2.608000000    -3.697000000
H     2.995000000     3.246000000    -2.985000000
H     3.902000000     2.195000000    -3.587000000
O    -2.230000000     5.026000000     5.179000000
H    -2.106000000     4.587000000     6.020000000
H    -1.372000000     4.981000000     4.757000000
O    -2.025000000     7.713000000     4.098000000
H    -2.591000000     8.289000000     3.583000000
H    -1.919000000     6.933000000     3.554000000
O     0.434000000     7.674000000    -1.069000000
H    -0.370000000     7.453000000    -1.540000000
H     0.574000000     6.936000000    -0.476000000
O     2.333000000     6.542000000     3.876000000
H     3.001000000     6.251000000     3.255000000
H     2.811000000     7.085000000     4.504000000
O    -1.650000000     4.934000000    -0.403000000
H    -1.717000000     5.640000000    -1.047000000
H    -1.371000000     4.172000000    -0.911000000
O    -4.368000000     4.457000000    -0.022000000
H    -3.714000000     4.041000000     0.539000000
H    -3.859000000     4.875000000    -0.715000000
O     4.613000000     5.090000000    -1.672000000
H     3.726000000     4.782000000    -1.490000000
H     4.860000000     4.647000000    -2.484000000
O    -1.284000000     1.539000000     6.727000000
H    -0.828000000     2.301000000     7.084000000
H    -0.595000000     1.020000000     6.312000000
O    -4.300000000    -2.976000000    -1.205000000
H    -3.907000000    -3.096000000    -0.341000000
H    -3.631000000    -2.515000000    -1.711000000
O    -5.681000000    -3.457000000    -3.621000000
H    -5.432000000    -2.932000000    -2.860000000
H    -5.417000000    -2.929000000    -4.374000000
O     7.081000000     1.322000000    -1.604000000
H     7.795000000     0.765000000    -1.294000000
H     6.420000000     1.272000000    -0.912000000
O    -3.921000000    -5.899000000    -1.239000000
H    -3.758000000    -5.224000000    -1.898000000
H    -3.553000000    -5.539000000    -0.432000000
O     2.534000000     1.808000000     3.256000000
H     2.957000000     2.286000000     2.542000000
H     2.766000000     2.300000000     4.044000000
O    -1.739000000    -1.386000000     3.561000000
H    -1.632000000    -1.811000000     2.710000000
H    -1.216000000    -0.586000000     3.497000000
O     3.555000000    -5.209000000    -0.403000000
H     3.410000000    -4.569000000     0.295000000
H     2.679000000    -5.522000000    -0.626000000
O     2.604000000    -3.101000000     3.439000000
H     2.025000000    -2.923000000     4.180000000
H     3.058000000    -2.272000000     3.285000000
O    -3.545000000     1.617000000     5.079000000
H    -2.737000000     1.327000000     5.502000000
H    -3.288000000     2.385000000     4.569000000
O     5.825000000     0.766000000     1.085000000
H     5.916000000     0.890000000     2.030000000
H     5.218000000     1.454000000     0.811000000
