144
-2808.79777
O     4.041000000     3.657000000    -1.328000000
H     4.764000000     3.865000000    -1.921000000
H     3.558000000     4.479000000    -1.242000000
O     1.095000000     4.094000000    -6.440000000
H     1.321000000     4.731000000    -5.762000000
H     0.457000000     3.515000000    -6.022000000
O    -2.838000000     3.020000000     5.111000000
H    -3.093000000     3.552000000     4.357000000
H    -1.896000000     3.166000000     5.199000000
O    -1.491000000    -5.783000000     0.253000000
H    -1.418000000    -5.251000000    -0.540000000
H    -1.143000000    -5.225000000     0.948000000
O     0.875000000     3.971000000    -1.787000000
H    -0.011000000     4.298000000    -1.631000000
H     1.191000000     4.481000000    -2.533000000
O    -1.463000000    -1.895000000     5.735000000
H    -1.983000000    -2.161000000     6.494000000
H    -2.103000000    -1.531000000     5.123000000
O    -1.319000000    -4.250000000     2.627000000
H    -0.374000000    -4.345000000     2.513000000
H    -1.492000000    -4.602000000     3.500000000
O    -3.637000000     0.411000000     4.366000000
H    -3.613000000     1.266000000     4.796000000
H    -3.865000000     0.607000000     3.457000000
O     0.404000000     7.431000000    -0.794000000
H     0.311000000     7.528000000    -1.741000000
H    -0.463000000     7.154000000    -0.496000000
O    -1.383000000     5.614000000     3.549000000
H    -2.126000000     5.080000000     3.270000000
H    -1.673000000     6.517000000     3.418000000
O     4.132000000    -3.177000000    -3.790000000
H     3.703000000    -3.854000000    -3.266000000
H     4.506000000    -2.576000000    -3.145000000
O    -4.801000000    -0.732000000    -3.445000000
H    -3.946000000    -1.102000000    -3.665000000
H    -4.714000000    -0.454000000    -2.533000000
O     3.372000000    -7.557000000     0.361000000
H     4.173000000    -8.073000000     0.266000000
H     3.651000000    -6.766000000     0.822000000
O     1.061000000    -5.488000000     1.342000000
H     1.655000000    -5.067000000     0.721000000
H     0.729000000    -6.254000000     0.875000000
O     1.162000000     2.707000000     0.689000000
H     1.253000000     3.241000000    -0.100000000
H     0.570000000     1.999000000     0.432000000
O    -4.684000000     1.247000000     2.008000000
H    -4.088000000     1.735000000     1.439000000
H    -5.141000000     0.648000000     1.417000000
O    -4.993000000     4.000000000    -0.618000000
H    -5.087000000     4.600000000     0.122000000
H    -4.117000000     3.630000000    -0.517000000
O    -3.413000000     6.175000000    -2.708000000
H    -3.496000000     6.765000000    -3.457000000
H    -3.903000000     5.394000000    -2.963000000
O     1.393000000    -1.077000000     4.786000000
H     0.653000000    -1.415000000     5.291000000
H     1.084000000    -0.240000000     4.440000000
O     2.851000000    -4.931000000    -1.989000000
H     2.083000000    -5.502000000    -2.025000000
H     3.593000000    -5.531000000    -1.923000000
O    -1.332000000     2.937000000    -5.865000000
H    -2.179000000     2.688000000    -6.236000000
H    -1.521000000     3.131000000    -4.947000000
O    -5.394000000     2.329000000    -2.507000000
H    -5.328000000     1.506000000    -2.023000000
H    -5.288000000     3.008000000    -1.841000000
O    -0.730000000    -2.992000000    -4.618000000
H    -0.584000000    -2.440000000    -3.850000000
H     0.070000000    -2.901000000    -5.134000000
O     5.265000000    -0.661000000     0.489000000
H     5.348000000     0.290000000     0.552000000
H     4.585000000    -0.884000000     1.125000000
O     5.194000000    -1.064000000    -2.111000000
H     5.203000000    -1.042000000    -1.154000000
H     4.694000000    -0.288000000    -2.364000000
O    -3.048000000     7.161000000     2.086000000
H    -3.969000000     6.957000000     2.249000000
H    -2.783000000     6.544000000     1.404000000
O    -3.318000000     4.071000000     2.654000000
H    -3.125000000     3.408000000     1.991000000
H    -4.142000000     4.465000000     2.366000000
O    -3.818000000    -3.454000000    -0.282000000
H    -3.879000000    -3.744000000     0.628000000
H    -4.702000000    -3.571000000    -0.631000000
O    -7.449000000     2.754000000    -0.046000000
H    -6.541000000     3.013000000    -0.200000000
H    -7.772000000     3.384000000     0.598000000
O    -6.181000000     2.766000000     3.620000000
H    -6.507000000     2.189000000     4.310000000
H    -5.546000000     2.233000000     3.142000000
O     0.943000000     4.476000000     2.518000000
H     0.917000000     3.786000000     1.855000000
H     0.025000000     4.718000000     2.648000000
O     2.114000000    -3.266000000    -5.757000000
H     2.420000000    -2.595000000    -6.367000000
H     2.278000000    -2.895000000    -4.890000000
O     1.912000000     2.185000000    -4.101000000
H     2.149000000     3.045000000    -3.756000000
H     2.450000000     1.570000000    -3.603000000
O    -2.832000000     3.285000000    -3.308000000
H    -2.415000000     3.217000000    -2.449000000
H    -3.728000000     2.980000000    -3.164000000
O     0.546000000     1.594000000     4.066000000
H     0.649000000     2.095000000     4.874000000
H     1.018000000     2.103000000     3.407000000
O     1.674000000    -4.763000000     3.809000000
H     2.602000000    -4.557000000     3.914000000
H     1.637000000    -5.307000000     3.021000000
O     3.856000000     1.367000000    -2.651000000
H     3.724000000     2.147000000    -2.113000000
H     4.721000000     1.489000000    -3.041000000
O    -1.846000000    -1.151000000    -2.557000000
H    -1.548000000    -1.061000000    -1.652000000
H    -1.432000000    -0.422000000    -3.020000000
O    -4.730000000    -0.478000000    -0.593000000
H    -4.088000000    -1.177000000    -0.715000000
H    -5.531000000    -0.932000000    -0.331000000
O     5.195000000     2.030000000     0.763000000
H     4.411000000     1.968000000     1.308000000
H     4.864000000     2.243000000    -0.110000000
O     0.529000000    -3.845000000     6.175000000
H     0.552000000    -4.141000000     5.265000000
H    -0.312000000    -3.397000000     6.260000000
O     4.876000000    -5.546000000     1.250000000
H     5.243000000    -5.622000000     2.131000000
H     5.634000000    -5.399000000     0.686000000
O    -1.937000000     6.007000000    -0.327000000
H    -1.852000000     5.068000000    -0.491000000
H    -2.271000000     6.365000000    -1.150000000
O     0.247000000    -0.159000000    -4.303000000
H     0.195000000    -0.089000000    -5.256000000
H     0.658000000     0.659000000    -4.025000000
O    -5.629000000     5.043000000     1.814000000
H    -6.189000000     5.819000000     1.785000000
H    -6.110000000     4.421000000     2.361000000
O     4.174000000    -0.922000000     5.370000000
H     3.231000000    -0.970000000     5.216000000
H     4.254000000    -0.571000000     6.258000000
O     2.941000000     1.066000000     2.047000000
H     2.099000000     1.298000000     1.654000000
H     2.756000000     0.282000000     2.564000000
O    -2.379000000    -4.524000000    -2.131000000
H    -1.699000000    -3.909000000    -2.405000000
H    -2.870000000    -4.054000000    -1.457000000
