144
-2811.91408
O    -4.424000000     1.698000000    -1.575000000
H    -5.034000000     1.995000000    -0.900000000
H    -4.180000000     0.813000000    -1.304000000
O    -2.657000000    -5.894000000    -0.491000000
H    -3.145000000    -6.313000000     0.218000000
H    -3.198000000    -5.146000000    -0.744000000
O    -0.004000000    -4.849000000    -3.657000000
H     0.943000000    -4.713000000    -3.669000000
H    -0.177000000    -5.252000000    -2.806000000
O    -5.411000000     0.008000000     1.836000000
H    -4.596000000     0.463000000     1.626000000
H    -5.294000000    -0.871000000     1.476000000
O     3.205000000    -2.644000000    -0.951000000
H     3.687000000    -2.603000000    -0.125000000
H     2.295000000    -2.784000000    -0.690000000
O    -0.341000000    -6.568000000    -1.691000000
H     0.234000000    -7.119000000    -1.160000000
H    -1.133000000    -6.469000000    -1.161000000
O    -1.104000000     5.142000000     0.616000000
H    -1.348000000     4.664000000    -0.176000000
H    -1.013000000     6.051000000     0.328000000
O    -3.037000000     1.346000000     0.895000000
H    -2.387000000     1.330000000     0.193000000
H    -2.522000000     1.279000000     1.700000000
O     3.074000000     0.706000000     0.619000000
H     2.216000000     0.732000000     1.043000000
H     3.137000000     1.541000000     0.155000000
O     3.161000000    -2.335000000     4.321000000
H     3.519000000    -2.643000000     5.154000000
H     2.782000000    -1.480000000     4.525000000
O    -0.103000000     3.435000000    -6.365000000
H     0.369000000     2.613000000    -6.499000000
H     0.572000000     4.111000000    -6.426000000
O    -5.251000000    -2.121000000     0.339000000
H    -5.848000000    -2.844000000     0.147000000
H    -4.762000000    -1.992000000    -0.473000000
O    -2.765000000    -5.596000000     4.226000000
H    -2.738000000    -5.813000000     5.158000000
H    -2.669000000    -4.644000000     4.199000000
O     3.318000000     2.583000000     5.139000000
H     3.092000000     3.353000000     5.660000000
H     3.947000000     2.906000000     4.493000000
O    -3.757000000     3.541000000     3.809000000
H    -3.359000000     3.828000000     4.631000000
H    -3.566000000     2.603000000     3.765000000
O    -5.095000000    -2.795000000     3.590000000
H    -5.654000000    -2.340000000     2.960000000
H    -5.608000000    -3.557000000     3.858000000
O     2.427000000     2.892000000    -4.528000000
H     1.706000000     2.747000000    -3.915000000
H     2.777000000     2.017000000    -4.697000000
O     0.613000000    -0.433000000    -5.651000000
H     0.690000000     0.340000000    -6.211000000
H     0.460000000    -0.079000000    -4.775000000
O     0.511000000    -3.065000000    -6.674000000
H     0.591000000    -2.193000000    -6.289000000
H     1.295000000    -3.162000000    -7.214000000
O     4.255000000    -1.686000000    -4.722000000
H     4.410000000    -1.329000000    -5.596000000
H     3.729000000    -1.019000000    -4.280000000
O     3.365000000     5.573000000     0.354000000
H     2.975000000     4.764000000     0.022000000
H     3.550000000     6.089000000    -0.431000000
O     0.835000000     5.353000000    -2.848000000
H     1.672000000     5.713000000    -2.557000000
H     0.928000000     4.407000000    -2.734000000
O    -2.442000000     3.307000000    -7.712000000
H    -1.573000000     3.438000000    -7.334000000
H    -2.818000000     4.187000000    -7.758000000
O    -2.601000000     0.905000000     3.704000000
H    -2.701000000    -0.030000000     3.886000000
H    -1.896000000     1.189000000     4.285000000
O     4.009000000     0.486000000    -3.023000000
H     4.721000000     1.020000000    -2.671000000
H     3.560000000     0.145000000    -2.250000000
O     1.918000000     1.474000000    -7.211000000
H     2.119000000     0.835000000    -7.894000000
H     2.744000000     1.935000000    -7.062000000
O     1.996000000     5.233000000    -5.992000000
H     2.832000000     5.677000000    -6.129000000
H     2.183000000     4.569000000    -5.329000000
O     0.197000000     4.550000000     2.990000000
H     0.880000000     3.881000000     2.945000000
H    -0.173000000     4.574000000     2.107000000
O     0.104000000     6.976000000    -4.784000000
H     0.456000000     6.619000000    -3.968000000
H     0.626000000     6.563000000    -5.471000000
O     3.081000000     6.611000000    -2.132000000
H     3.963000000     6.826000000    -2.434000000
H     2.745000000     7.432000000    -1.771000000
O     5.518000000    -0.360000000     1.436000000
H     6.174000000     0.197000000     1.018000000
H     4.681000000     0.050000000     1.217000000
O    -2.205000000     3.535000000    -1.213000000
H    -2.820000000     2.803000000    -1.171000000
H    -1.905000000     3.544000000    -2.122000000
O    -1.507000000     3.972000000    -4.208000000
H    -1.259000000     3.688000000    -5.087000000
H    -0.774000000     4.515000000    -3.916000000
O     4.105000000    -2.663000000     1.795000000
H     3.797000000    -2.550000000     2.694000000
H     4.752000000    -1.968000000     1.674000000
O    -2.654000000    -2.075000000     4.934000000
H    -3.510000000    -2.273000000     4.554000000
H    -2.564000000    -2.695000000     5.658000000
O    -2.540000000     0.226000000    -4.147000000
H    -2.391000000     0.175000000    -5.091000000
H    -1.720000000     0.572000000    -3.794000000
O     5.659000000     2.514000000    -1.933000000
H     5.825000000     3.204000000    -2.576000000
H     6.524000000     2.157000000    -1.736000000
O    -4.043000000     3.056000000    -4.008000000
H    -4.092000000     2.475000000    -3.249000000
H    -3.113000000     3.268000000    -4.087000000
O    -0.436000000    -7.202000000     3.432000000
H     0.103000000    -7.199000000     4.223000000
H    -1.181000000    -6.640000000     3.647000000
O     3.286000000     3.029000000    -0.877000000
H     4.127000000     2.961000000    -1.327000000
H     2.636000000     3.005000000    -1.579000000
O     0.294000000    -2.506000000     5.879000000
H    -0.335000000    -2.404000000     5.164000000
H     0.971000000    -1.854000000     5.698000000
O     2.156000000    -0.129000000     5.583000000
H     2.426000000     0.695000000     5.178000000
H     2.587000000    -0.128000000     6.438000000
O    -0.161000000     1.635000000     4.814000000
H     0.064000000     2.400000000     5.344000000
H     0.438000000     0.951000000     5.115000000
O     3.410000000    -5.447000000    -1.194000000
H     3.825000000    -5.607000000    -2.042000000
H     3.353000000    -4.493000000    -1.132000000
O    -2.810000000    -3.714000000    -3.055000000
H    -3.180000000    -2.953000000    -2.607000000
H    -1.868000000    -3.652000000    -2.895000000
O    -3.033000000     0.775000000    -6.998000000
H    -3.823000000     0.699000000    -6.463000000
H    -2.965000000     1.710000000    -7.193000000
O    -4.033000000    -1.366000000    -2.122000000
H    -4.940000000    -1.183000000    -2.366000000
H    -3.513000000    -0.808000000    -2.700000000
O    -4.273000000     4.049000000     1.149000000
H    -3.540000000     3.523000000     0.829000000
H    -4.016000000     4.303000000     2.035000000
