144
-2838.11887
O    -3.579000000    -3.410000000     1.998000000
H    -3.132000000    -3.054000000     1.230000000
H    -3.315000000    -2.834000000     2.717000000
O     0.615000000    -6.613000000    -4.323000000
H     0.728000000    -6.323000000    -5.228000000
H     0.931000000    -5.880000000    -3.795000000
O     4.265000000    -2.753000000     1.190000000
H     4.942000000    -2.704000000     0.516000000
H     3.717000000    -3.493000000     0.927000000
O     1.270000000     2.045000000     7.081000000
H     1.200000000     1.905000000     6.137000000
H     0.404000000     2.359000000     7.342000000
O    -4.037000000     0.769000000    -2.769000000
H    -4.030000000     1.725000000    -2.716000000
H    -4.662000000     0.497000000    -2.097000000
O    -1.618000000     1.217000000    -4.870000000
H    -2.343000000     1.474000000    -4.301000000
H    -1.703000000     1.782000000    -5.637000000
O    -0.548000000     5.476000000    -3.342000000
H    -1.174000000     5.087000000    -3.952000000
H    -0.216000000     4.736000000    -2.835000000
O    -1.736000000    -1.222000000     2.096000000
H    -1.599000000    -0.895000000     2.986000000
H    -1.182000000    -0.666000000     1.549000000
O     3.539000000     1.282000000    -1.440000000
H     3.679000000     0.421000000    -1.835000000
H     4.418000000     1.651000000    -1.353000000
O     2.021000000     6.291000000     3.608000000
H     2.503000000     6.598000000     4.376000000
H     2.560000000     6.561000000     2.864000000
O     2.506000000    -2.393000000     5.022000000
H     2.111000000    -1.955000000     5.776000000
H     2.013000000    -3.209000000     4.935000000
O    -5.504000000     6.120000000     0.832000000
H    -4.677000000     6.124000000     1.313000000
H    -5.424000000     5.385000000     0.225000000
O     2.376000000    -4.821000000    -3.080000000
H     3.205000000    -5.189000000    -3.386000000
H     2.618000000    -3.985000000    -2.681000000
O     4.219000000    -1.198000000    -2.606000000
H     4.467000000    -1.944000000    -2.062000000
H     3.695000000    -1.579000000    -3.311000000
O     2.733000000    -2.060000000    -4.633000000
H     2.144000000    -1.315000000    -4.512000000
H     2.228000000    -2.681000000    -5.158000000
O    -3.441000000     4.969000000     2.592000000
H    -2.916000000     4.222000000     2.303000000
H    -2.875000000     5.438000000     3.204000000
O    -5.523000000     1.275000000     4.457000000
H    -5.014000000     0.934000000     3.722000000
H    -5.384000000     2.222000000     4.425000000
O    -7.318000000     0.530000000     1.449000000
H    -7.226000000     0.780000000     2.368000000
H    -6.426000000     0.553000000     1.104000000
O     3.870000000     1.922000000     3.751000000
H     4.013000000     1.047000000     3.391000000
H     4.745000000     2.227000000     3.993000000
O     5.884000000    -2.925000000    -1.096000000
H     5.856000000    -3.733000000    -1.608000000
H     6.803000000    -2.660000000    -1.116000000
O     4.954000000    -0.980000000    -6.258000000
H     4.845000000    -0.490000000    -7.073000000
H     4.061000000    -1.162000000    -5.966000000
O    -0.523000000     5.381000000     3.082000000
H    -0.376000000     4.479000000     2.797000000
H     0.354000000     5.728000000     3.245000000
O    -5.840000000    -0.865000000    -1.033000000
H    -5.467000000    -1.470000000    -1.675000000
H    -5.924000000    -1.385000000    -0.234000000
O    -1.316000000     3.285000000     4.848000000
H    -1.059000000     3.366000000     3.929000000
H    -0.495000000     3.119000000     5.312000000
O     6.944000000    -0.984000000     2.720000000
H     6.017000000    -0.935000000     2.953000000
H     7.050000000    -1.857000000     2.341000000
O     4.097000000    -0.837000000     3.266000000
H     3.911000000    -1.393000000     2.509000000
H     3.571000000    -1.210000000     3.973000000
O    -2.926000000     5.231000000     6.149000000
H    -2.482000000     4.512000000     5.699000000
H    -2.798000000     5.987000000     5.577000000
O    -2.722000000     4.415000000    -0.377000000
H    -2.018000000     5.004000000    -0.106000000
H    -2.642000000     3.660000000     0.206000000
O    -0.073000000    -3.914000000     2.284000000
H    -0.756000000    -4.360000000     1.783000000
H    -0.476000000    -3.089000000     2.555000000
O     4.212000000    -5.794000000    -0.853000000
H     3.717000000    -6.367000000    -1.438000000
H     3.557000000    -5.444000000    -0.249000000
O     0.722000000    -6.640000000    -1.471000000
H     1.141000000    -6.059000000    -2.105000000
H     1.205000000    -7.464000000    -1.545000000
O    -4.923000000    -3.109000000    -2.413000000
H    -5.734000000    -3.456000000    -2.784000000
H    -4.325000000    -3.856000000    -2.401000000
O    -4.116000000     0.799000000     2.041000000
H    -3.530000000     0.042000000     2.006000000
H    -3.561000000     1.542000000     1.803000000
O    -3.040000000     3.559000000    -3.029000000
H    -2.709000000     3.717000000    -2.145000000
H    -3.985000000     3.692000000    -2.958000000
O    -0.897000000     6.149000000     0.316000000
H    -0.739000000     6.186000000     1.259000000
H    -0.114000000     6.538000000    -0.074000000
O    -2.709000000    -3.009000000    -0.789000000
H    -1.906000000    -2.584000000    -1.091000000
H    -3.401000000    -2.620000000    -1.324000000
O    -0.972000000    -0.190000000     4.391000000
H    -1.228000000    -0.785000000     5.096000000
H    -0.224000000     0.291000000     4.744000000
O    -3.557000000    -0.955000000    -5.591000000
H    -2.608000000    -0.831000000    -5.602000000
H    -3.838000000    -0.582000000    -4.756000000
O     2.164000000    -4.622000000     0.657000000
H     1.669000000    -4.457000000     1.460000000
H     1.545000000    -5.075000000     0.083000000
O    -5.427000000     3.970000000     4.102000000
H    -4.611000000     4.105000000     3.619000000
H    -6.103000000     4.350000000     3.541000000
O     1.431000000    -3.244000000    -6.749000000
H     2.084000000    -3.429000000    -7.425000000
H     0.601000000    -3.201000000    -7.224000000
O     0.880000000     3.106000000    -2.096000000
H     1.546000000     3.241000000    -1.421000000
H     0.958000000     2.181000000    -2.328000000
O    -1.623000000    -5.350000000     0.444000000
H    -2.022000000    -4.716000000    -0.152000000
H    -1.140000000    -5.946000000    -0.129000000
O    -1.892000000     7.370000000     4.425000000
H    -1.135000000     6.846000000     4.165000000
H    -1.659000000     7.717000000     5.286000000
O     2.426000000     3.200000000     0.277000000
H     1.621000000     3.125000000     0.789000000
H     2.505000000     2.357000000    -0.169000000
O    -3.546000000    -5.718000000    -2.671000000
H    -2.955000000    -5.718000000    -3.423000000
H    -3.261000000    -6.462000000    -2.141000000
O     1.068000000     0.043000000    -4.470000000
H     0.145000000     0.291000000    -4.419000000
H     1.527000000     0.862000000    -4.657000000
O     1.200000000     2.173000000     4.489000000
H     2.133000000     2.314000000     4.332000000
H     0.781000000     2.386000000     3.655000000
