144
-2847.60769
O     4.209000000     0.326000000     4.968000000
H     5.163000000     0.254000000     4.947000000
H     3.900000000    -0.579000000     4.939000000
O    -2.697000000     1.469000000     5.580000000
H    -1.859000000     1.650000000     5.155000000
H    -2.887000000     0.558000000     5.357000000
O    -2.051000000    -3.495000000    -3.862000000
H    -2.009000000    -2.541000000    -3.935000000
H    -1.198000000    -3.745000000    -3.506000000
O     2.724000000     1.527000000    -2.306000000
H     2.755000000     2.314000000    -1.762000000
H     2.108000000     0.949000000    -1.857000000
O    -2.448000000    -1.641000000     3.884000000
H    -1.926000000    -2.093000000     3.221000000
H    -1.858000000    -1.548000000     4.631000000
O     3.588000000     2.531000000     3.323000000
H     3.559000000     1.990000000     4.112000000
H     2.677000000     2.784000000     3.173000000
O     1.363000000     0.133000000    -5.015000000
H     2.205000000     0.465000000    -4.702000000
H     0.755000000     0.860000000    -4.883000000
O     2.546000000    -6.676000000     1.958000000
H     1.676000000    -6.398000000     1.673000000
H     3.042000000    -6.780000000     1.146000000
O    -3.952000000    -0.301000000     0.613000000
H    -4.240000000    -1.041000000     1.148000000
H    -4.177000000     0.471000000     1.131000000
O     0.642000000     5.167000000    -0.600000000
H     1.118000000     4.375000000    -0.350000000
H    -0.145000000     4.846000000    -1.039000000
O     5.113000000    -2.239000000    -1.771000000
H     5.631000000    -2.364000000    -0.977000000
H     5.247000000    -1.320000000    -2.002000000
O     0.986000000     3.661000000     2.742000000
H     0.329000000     3.251000000     3.304000000
H     0.680000000     4.562000000     2.635000000
O     2.731000000    -3.872000000    -1.221000000
H     3.430000000    -3.363000000    -1.631000000
H     2.732000000    -3.588000000    -0.307000000
O    -2.376000000    -2.041000000    -0.850000000
H    -2.746000000    -1.240000000    -0.480000000
H    -1.438000000    -1.977000000    -0.669000000
O     2.604000000    -6.664000000    -1.077000000
H     2.574000000    -5.710000000    -1.150000000
H     3.387000000    -6.917000000    -1.565000000
O    -0.673000000    -1.873000000     6.032000000
H     0.028000000    -1.231000000     5.918000000
H    -0.245000000    -2.720000000     5.908000000
O    -5.658000000     2.808000000    -0.769000000
H    -5.324000000     2.748000000     0.126000000
H    -4.922000000     2.539000000    -1.318000000
O    -0.265000000     2.174000000     4.621000000
H    -0.031000000     1.246000000     4.635000000
H     0.383000000     2.594000000     5.187000000
O    -3.855000000     3.563000000    -3.968000000
H    -4.235000000     2.685000000    -3.992000000
H    -3.099000000     3.481000000    -3.386000000
O     0.088000000     4.874000000    -4.542000000
H     0.353000000     5.677000000    -4.991000000
H    -0.380000000     5.178000000    -3.764000000
O     4.520000000     2.343000000     0.853000000
H     5.431000000     2.082000000     0.988000000
H     4.222000000     2.630000000     1.716000000
O    -1.721000000     1.154000000    -7.094000000
H    -1.079000000     1.616000000    -7.633000000
H    -1.394000000     1.250000000    -6.199000000
O     1.419000000    -0.166000000     5.467000000
H     2.004000000     0.188000000     4.798000000
H     2.005000000    -0.540000000     6.124000000
O    -5.692000000     1.287000000    -3.720000000
H    -6.043000000     1.619000000    -2.894000000
H    -5.193000000     0.509000000    -3.472000000
O    -4.021000000    -1.730000000    -5.866000000
H    -4.364000000    -2.606000000    -5.692000000
H    -3.819000000    -1.375000000    -5.000000000
O     4.454000000    -3.336000000     1.131000000
H     5.049000000    -2.591000000     1.202000000
H     4.975000000    -4.021000000     0.711000000
O    -1.176000000    -1.775000000    -6.597000000
H    -2.080000000    -2.018000000    -6.398000000
H    -1.250000000    -0.944000000    -7.066000000
O    -2.706000000     4.777000000     3.292000000
H    -2.663000000     4.790000000     4.248000000
H    -3.306000000     5.490000000     3.069000000
O    -3.782000000     2.921000000     1.405000000
H    -3.415000000     2.937000000     0.521000000
H    -3.235000000     3.530000000     1.902000000
O    -2.490000000     5.025000000    -6.003000000
H    -1.680000000     4.839000000    -5.528000000
H    -3.107000000     4.363000000    -5.692000000
O     1.200000000    -4.075000000     5.738000000
H     1.728000000    -4.210000000     6.524000000
H     1.840000000    -3.921000000     5.043000000
O    -3.764000000     6.588000000     0.048000000
H    -3.168000000     7.270000000    -0.262000000
H    -3.725000000     6.652000000     1.003000000
O     4.105000000    -2.333000000     5.345000000
H     4.813000000    -2.808000000     5.779000000
H     3.780000000    -2.943000000     4.682000000
O     0.433000000    -4.377000000    -2.737000000
H     0.706000000    -4.637000000    -3.617000000
H     1.215000000    -3.981000000    -2.351000000
O    -0.547000000    -3.067000000     2.469000000
H    -0.266000000    -3.454000000     1.640000000
H    -0.489000000    -3.784000000     3.100000000
O    -0.292000000    -4.401000000    -0.061000000
H    -0.512000000    -5.333000000    -0.081000000
H     0.009000000    -4.207000000    -0.949000000
O    -5.417000000     0.566000000     3.669000000
H    -6.001000000     1.308000000     3.513000000
H    -4.713000000     0.924000000     4.209000000
O    -0.499000000     6.445000000     2.978000000
H    -0.701000000     7.067000000     3.676000000
H    -1.352000000     6.105000000     2.707000000
O     4.346000000    -3.242000000    -4.385000000
H     4.557000000    -4.175000000    -4.363000000
H     4.726000000    -2.891000000    -3.580000000
O    -0.651000000     2.293000000    -4.972000000
H    -1.253000000     2.142000000    -4.243000000
H    -0.318000000     3.179000000    -4.827000000
O     2.019000000     2.869000000    -0.061000000
H     1.676000000     2.803000000     0.830000000
H     2.967000000     2.789000000     0.041000000
O     7.030000000     0.567000000    -0.129000000
H     7.844000000     0.789000000    -0.582000000
H     6.404000000     0.396000000    -0.833000000
O    -3.221000000    -0.814000000    -3.489000000
H    -3.144000000    -1.369000000    -2.714000000
H    -2.983000000     0.061000000    -3.182000000
O    -5.759000000    -0.426000000    -1.552000000
H    -5.069000000    -0.326000000    -0.897000000
H    -6.113000000    -1.302000000    -1.396000000
O     5.678000000    -1.066000000     1.567000000
H     6.209000000    -0.413000000     1.112000000
H     5.227000000    -0.573000000     2.253000000
O    -1.702000000     4.887000000    -2.220000000
H    -2.003000000     4.209000000    -1.616000000
H    -2.093000000     5.695000000    -1.887000000
O     2.863000000    -3.834000000     3.517000000
H     2.880000000    -4.788000000     3.438000000
H     3.183000000    -3.518000000     2.672000000
O     5.491000000     0.501000000    -2.543000000
H     4.625000000     0.885000000    -2.685000000
H     6.103000000     1.193000000    -2.794000000
