144
-2820.64365
O     4.552000000    -3.014000000     0.670000000
H     4.416000000    -2.068000000     0.730000000
H     3.765000000    -3.342000000     0.236000000
O     2.305000000    -4.511000000    -0.744000000
H     2.232000000    -5.128000000    -1.473000000
H     1.502000000    -4.643000000    -0.240000000
O    -2.881000000     0.836000000     6.058000000
H    -2.912000000     0.635000000     6.994000000
H    -3.747000000     0.593000000     5.732000000
O    -0.930000000     5.397000000     1.410000000
H    -1.398000000     4.640000000     1.059000000
H    -0.017000000     5.249000000     1.164000000
O     4.374000000     2.438000000     3.219000000
H     3.983000000     2.946000000     3.930000000
H     4.292000000     1.527000000     3.503000000
O    -4.500000000     2.969000000    -0.450000000
H    -4.698000000     2.875000000     0.481000000
H    -3.551000000     3.097000000    -0.482000000
O     0.988000000    -4.536000000     1.973000000
H     0.192000000    -4.641000000     2.494000000
H     1.207000000    -5.423000000     1.688000000
O     1.940000000    -2.925000000    -3.687000000
H     1.127000000    -2.829000000    -3.191000000
H     2.126000000    -3.863000000    -3.665000000
O     1.186000000    -0.936000000    -5.468000000
H     1.486000000    -1.528000000    -6.157000000
H     1.583000000    -1.278000000    -4.668000000
O     1.332000000     1.817000000    -4.419000000
H     1.252000000     2.526000000    -5.057000000
H     1.326000000     1.018000000    -4.946000000
O     4.608000000    -0.444000000    -0.125000000
H     4.174000000     0.408000000    -0.155000000
H     5.488000000    -0.253000000     0.198000000
O     2.428000000    -1.462000000     6.082000000
H     2.169000000    -2.206000000     5.539000000
H     1.974000000    -0.713000000     5.695000000
O     1.217000000     0.598000000     4.670000000
H     2.124000000     0.693000000     4.380000000
H     0.716000000     1.161000000     4.081000000
O     4.445000000     7.176000000     1.301000000
H     4.501000000     8.101000000     1.538000000
H     3.869000000     6.793000000     1.963000000
O    -2.701000000     5.231000000     5.373000000
H    -1.914000000     5.352000000     5.904000000
H    -2.605000000     4.355000000     4.998000000
O    -3.967000000    -1.804000000    -3.461000000
H    -4.050000000    -2.163000000    -2.577000000
H    -3.839000000    -0.865000000    -3.327000000
O    -6.378000000    -1.092000000     1.758000000
H    -5.708000000    -1.218000000     1.086000000
H    -6.286000000    -1.853000000     2.332000000
O    -1.843000000     3.293000000    -0.535000000
H    -1.270000000     2.624000000    -0.160000000
H    -1.588000000     3.339000000    -1.456000000
O     2.542000000     6.158000000     3.174000000
H     1.879000000     6.690000000     2.733000000
H     2.040000000     5.536000000     3.700000000
O     0.556000000     7.818000000    -1.061000000
H     0.997000000     8.427000000    -1.653000000
H     1.083000000     7.020000000    -1.103000000
O     1.754000000     5.235000000    -0.293000000
H     2.624000000     4.937000000    -0.558000000
H     1.478000000     4.606000000     0.374000000
O     4.516000000    -1.336000000    -2.942000000
H     3.792000000    -1.961000000    -2.976000000
H     4.366000000    -0.839000000    -2.138000000
O    -1.240000000    -1.157000000    -6.992000000
H    -0.583000000    -0.725000000    -6.445000000
H    -0.898000000    -2.041000000    -7.123000000
O     1.089000000     4.301000000     4.641000000
H     1.927000000     3.949000000     4.942000000
H     0.708000000     3.596000000     4.118000000
O    -0.612000000     3.059000000    -3.140000000
H     0.067000000     2.408000000    -3.317000000
H    -0.157000000     3.900000000    -3.190000000
O    -3.119000000    -4.788000000    -2.404000000
H    -3.050000000    -5.584000000    -1.878000000
H    -2.286000000    -4.738000000    -2.874000000
O     3.779000000    -0.211000000     3.387000000
H     3.590000000    -0.708000000     4.183000000
H     3.160000000    -0.551000000     2.741000000
O    -2.278000000    -3.243000000    -5.049000000
H    -2.639000000    -2.678000000    -4.367000000
H    -2.385000000    -2.742000000    -5.857000000
O    -4.648000000    -1.483000000    -0.643000000
H    -5.072000000    -0.688000000    -0.968000000
H    -3.711000000    -1.291000000    -0.689000000
O    -3.203000000     0.533000000    -2.297000000
H    -2.661000000     0.968000000    -1.638000000
H    -3.454000000     1.233000000    -2.900000000
O    -2.966000000     2.406000000    -4.646000000
H    -2.690000000     2.170000000    -5.532000000
H    -2.155000000     2.652000000    -4.201000000
O    -2.852000000     6.965000000     2.499000000
H    -3.394000000     6.601000000     3.199000000
H    -2.272000000     6.246000000     2.247000000
O    -0.650000000    -5.095000000    -3.911000000
H    -0.012000000    -5.557000000    -4.454000000
H    -1.136000000    -4.547000000    -4.527000000
O    -2.503000000     2.781000000     4.166000000
H    -2.636000000     2.105000000     4.829000000
H    -1.611000000     2.635000000     3.850000000
O     3.970000000     3.734000000    -2.963000000
H     4.179000000     4.247000000    -2.182000000
H     3.201000000     3.221000000    -2.714000000
O    -3.777000000    -3.766000000     3.288000000
H    -3.071000000    -3.538000000     3.893000000
H    -4.558000000    -3.364000000     3.669000000
O     0.331000000     6.177000000     6.561000000
H     0.527000000     5.293000000     6.249000000
H    -0.227000000     6.043000000     7.327000000
O     2.730000000    -5.903000000    -3.360000000
H     2.551000000    -6.823000000    -3.555000000
H     3.640000000    -5.774000000    -3.627000000
O    -5.260000000    -4.298000000     0.514000000
H    -5.166000000    -3.710000000    -0.236000000
H    -4.642000000    -3.959000000     1.163000000
O     0.566000000     7.612000000     1.677000000
H     0.664000000     7.883000000     0.764000000
H    -0.063000000     6.891000000     1.646000000
O     3.520000000     3.720000000     5.555000000
H     4.210000000     4.243000000     5.963000000
H     3.388000000     2.987000000     6.157000000
O    -0.748000000    -6.816000000    -1.767000000
H    -0.592000000    -6.637000000    -2.694000000
H    -0.326000000    -7.661000000    -1.612000000
O    -5.622000000    -4.051000000    -3.401000000
H    -5.030000000    -4.595000000    -2.881000000
H    -5.071000000    -3.335000000    -3.720000000
O     3.408000000     2.251000000     0.517000000
H     4.000000000     2.250000000     1.269000000
H     2.601000000     2.645000000     0.848000000
O    -1.526000000    -3.158000000     5.083000000
H    -0.898000000    -2.438000000     5.034000000
H    -1.024000000    -3.891000000     5.439000000
O    -4.575000000     3.458000000     2.240000000
H    -4.936000000     4.306000000     2.497000000
H    -3.874000000     3.295000000     2.871000000
O     2.095000000    -2.000000000     2.072000000
H     1.298000000    -1.839000000     1.567000000
H     2.101000000    -2.947000000     2.215000000
O     5.387000000    -4.527000000    -2.683000000
H     4.824000000    -3.965000000    -2.151000000
H     6.211000000    -4.046000000    -2.751000000
