144
-2802.96321
O    -1.156000000    -2.896000000     3.166000000
H    -1.636000000    -3.678000000     2.892000000
H    -1.624000000    -2.171000000     2.751000000
O    -1.357000000     0.766000000    -4.570000000
H    -1.445000000    -0.138000000    -4.269000000
H    -0.415000000     0.935000000    -4.550000000
O     1.177000000    -3.725000000    -4.448000000
H     2.032000000    -3.969000000    -4.802000000
H     1.359000000    -3.450000000    -3.549000000
O     3.652000000    -2.942000000     3.097000000
H     3.510000000    -3.127000000     4.025000000
H     3.683000000    -1.986000000     3.046000000
O    -4.477000000    -1.504000000    -2.826000000
H    -5.250000000    -0.952000000    -2.704000000
H    -4.754000000    -2.169000000    -3.456000000
O    -4.282000000    -2.290000000    -5.464000000
H    -3.975000000    -1.385000000    -5.404000000
H    -3.548000000    -2.813000000    -5.143000000
O    -3.187000000     3.764000000     0.857000000
H    -3.402000000     2.997000000     1.389000000
H    -2.433000000     4.157000000     1.297000000
O     5.002000000     2.254000000    -0.687000000
H     4.604000000     1.526000000    -0.210000000
H     5.450000000     1.840000000    -1.424000000
O    -5.178000000     1.963000000     2.546000000
H    -5.660000000     1.231000000     2.161000000
H    -5.835000000     2.650000000     2.656000000
O     2.182000000     3.926000000     2.735000000
H     1.939000000     3.093000000     3.140000000
H     2.924000000     3.711000000     2.170000000
O    -7.510000000     1.358000000    -0.994000000
H    -6.573000000     1.473000000    -1.151000000
H    -7.892000000     2.215000000    -1.185000000
O     6.429000000    -1.839000000    -4.045000000
H     6.628000000    -2.301000000    -3.231000000
H     6.013000000    -2.499000000    -4.600000000
O     3.131000000    -0.895000000    -5.411000000
H     2.942000000    -0.725000000    -4.489000000
H     3.819000000    -1.560000000    -5.396000000
O    -2.622000000     4.588000000     4.590000000
H    -3.490000000     4.698000000     4.203000000
H    -2.039000000     4.470000000     3.840000000
O     6.156000000    -1.442000000    -0.628000000
H     6.023000000    -2.292000000    -0.209000000
H     5.349000000    -0.959000000    -0.450000000
O    -3.444000000    -4.584000000    -0.506000000
H    -4.122000000    -3.962000000    -0.244000000
H    -3.927000000    -5.319000000    -0.884000000
O    -5.134000000    -2.485000000    -0.181000000
H    -4.986000000    -2.159000000    -1.068000000
H    -5.965000000    -2.090000000     0.085000000
O    -2.787000000     1.542000000     4.041000000
H    -3.683000000     1.652000000     3.724000000
H    -2.794000000     0.698000000     4.493000000
O    -0.781000000    -1.120000000     5.543000000
H     0.124000000    -0.809000000     5.569000000
H    -0.858000000    -1.563000000     4.698000000
O     1.361000000     1.683000000    -3.608000000
H     2.028000000     2.339000000    -3.808000000
H     1.206000000     1.777000000    -2.668000000
O    -4.920000000     1.873000000    -2.186000000
H    -3.984000000     1.728000000    -2.324000000
H    -5.275000000     2.001000000    -3.065000000
O     3.438000000     3.212000000    -4.129000000
H     3.922000000     2.497000000    -3.715000000
H     4.041000000     3.560000000    -4.786000000
O    -0.941000000     4.314000000     2.504000000
H    -0.401000000     3.796000000     3.101000000
H    -0.355000000     5.000000000     2.186000000
O     5.874000000     2.702000000     3.463000000
H     5.133000000     3.055000000     3.955000000
H     5.922000000     3.249000000     2.678000000
O     4.213000000    -0.390000000     2.841000000
H     4.054000000    -0.314000000     1.900000000
H     4.330000000     0.513000000     3.137000000
O     1.268000000     0.597000000     5.837000000
H     2.222000000     0.551000000     5.896000000
H     0.977000000     0.716000000     6.741000000
O     2.825000000    -5.125000000    -0.827000000
H     3.078000000    -5.872000000    -1.369000000
H     3.066000000    -4.359000000    -1.349000000
O    -0.158000000    -5.063000000    -0.742000000
H     0.673000000    -4.597000000    -0.655000000
H    -0.793000000    -4.382000000    -0.965000000
O    -6.637000000    -0.204000000     1.419000000
H    -7.100000000    -0.772000000     2.034000000
H    -7.152000000    -0.252000000     0.614000000
O    -2.807000000    -4.763000000     2.101000000
H    -2.814000000    -4.633000000     1.153000000
H    -3.627000000    -5.221000000     2.286000000
O     3.751000000    -2.917000000    -2.253000000
H     4.676000000    -3.122000000    -2.388000000
H     3.709000000    -1.961000000    -2.295000000
O     8.155000000    -0.424000000    -2.166000000
H     7.756000000    -0.597000000    -3.018000000
H     7.457000000    -0.598000000    -1.534000000
O     3.229000000     4.207000000    -0.832000000
H     3.644000000     4.583000000    -1.609000000
H     3.641000000     3.349000000    -0.733000000
O    -3.914000000    -1.156000000     5.361000000
H    -4.325000000    -1.475000000     4.558000000
H    -3.092000000    -1.644000000     5.420000000
O    -4.451000000    -1.846000000     2.760000000
H    -5.229000000    -2.392000000     2.873000000
H    -4.397000000    -1.700000000     1.815000000
O    -2.324000000     3.219000000    -1.530000000
H    -1.408000000     2.991000000    -1.366000000
H    -2.667000000     3.463000000    -0.671000000
O    -5.717000000     3.923000000    -0.247000000
H    -4.828000000     4.040000000     0.088000000
H    -5.605000000     3.418000000    -1.053000000
O     0.774000000    -1.526000000    -6.676000000
H     1.590000000    -1.240000000    -6.266000000
H     0.968000000    -2.400000000    -7.014000000
O    -3.112000000     4.382000000    -3.781000000
H    -2.947000000     3.976000000    -2.930000000
H    -2.533000000     5.145000000    -3.799000000
O    -2.032000000    -3.166000000    -2.234000000
H    -2.370000000    -2.277000000    -2.340000000
H    -2.757000000    -3.653000000    -1.842000000
O    -1.139000000    -2.056000000    -4.481000000
H    -0.631000000    -2.486000000    -5.169000000
H    -1.039000000    -2.626000000    -3.718000000
O     5.297000000     0.912000000    -3.430000000
H     5.802000000     0.243000000    -3.893000000
H     4.704000000     0.415000000    -2.866000000
O    -3.508000000     0.796000000    -6.081000000
H    -3.740000000     1.715000000    -5.943000000
H    -2.708000000     0.672000000    -5.570000000
O    -0.183000000     2.268000000     4.146000000
H     0.245000000     1.618000000     4.703000000
H    -1.084000000     1.956000000     4.062000000
O     0.490000000     2.877000000    -0.654000000
H     0.726000000     2.035000000    -0.263000000
H     1.298000000     3.389000000    -0.624000000
O     7.429000000     1.575000000     1.370000000
H     6.933000000     1.254000000     2.123000000
H     6.781000000     2.037000000     0.837000000
O     6.364000000    -1.838000000     4.058000000
H     6.502000000    -1.124000000     4.681000000
H     5.613000000    -1.557000000     3.535000000
O     2.467000000     1.432000000    -6.717000000
H     2.726000000     0.678000000    -6.188000000
H     2.128000000     2.065000000    -6.084000000
