144
-2808.95105
O     0.934000000    -3.372000000     0.221000000
H     0.196000000    -2.762000000     0.231000000
H     1.600000000    -2.934000000    -0.308000000
O     1.035000000    -0.054000000     7.529000000
H     1.349000000    -0.945000000     7.682000000
H     0.133000000    -0.166000000     7.228000000
O    -3.793000000    -0.642000000    -1.886000000
H    -4.269000000    -0.576000000    -2.713000000
H    -4.280000000    -0.079000000    -1.284000000
O    -0.256000000    -5.182000000    -3.588000000
H    -0.044000000    -5.939000000    -4.134000000
H     0.429000000    -4.544000000    -3.786000000
O    -0.336000000    -2.577000000     7.439000000
H    -0.460000000    -3.286000000     6.809000000
H    -0.864000000    -1.856000000     7.096000000
O    -1.948000000     1.452000000    -2.386000000
H    -1.119000000     1.183000000    -1.989000000
H    -2.472000000     0.651000000    -2.411000000
O    -0.721000000    -4.321000000     5.435000000
H    -0.343000000    -4.944000000     4.814000000
H    -1.442000000    -3.913000000     4.956000000
O    -4.507000000     1.554000000     0.030000000
H    -3.923000000     1.960000000     0.670000000
H    -5.258000000     1.258000000     0.544000000
O     2.623000000    -1.120000000    -5.142000000
H     1.912000000    -0.682000000    -4.675000000
H     3.375000000    -0.536000000    -5.036000000
O     4.959000000     0.330000000    -4.572000000
H     4.986000000     0.556000000    -3.642000000
H     5.641000000     0.871000000    -4.970000000
O    -5.680000000    -0.526000000     1.807000000
H    -5.528000000    -0.007000000     2.597000000
H    -6.499000000    -0.990000000     1.979000000
O    -0.372000000     4.343000000     6.069000000
H     0.105000000     3.819000000     5.425000000
H    -0.696000000     5.095000000     5.573000000
O    -3.521000000     4.085000000     1.199000000
H    -3.281000000     3.954000000     2.116000000
H    -4.426000000     4.396000000     1.230000000
O    -0.247000000     3.288000000    -3.088000000
H     0.355000000     2.712000000    -3.559000000
H    -0.992000000     2.728000000    -2.868000000
O    -3.381000000     3.659000000    -2.056000000
H    -3.015000000     2.840000000    -2.391000000
H    -3.560000000     3.481000000    -1.133000000
O     5.956000000     4.169000000    -2.723000000
H     6.399000000     4.934000000    -3.090000000
H     5.549000000     3.743000000    -3.477000000
O    -4.526000000    -2.143000000     0.247000000
H    -4.430000000    -1.771000000    -0.629000000
H    -5.101000000    -1.530000000     0.706000000
O    -0.650000000    -0.500000000    -5.099000000
H    -1.254000000     0.223000000    -5.266000000
H     0.059000000    -0.108000000    -4.589000000
O     4.760000000     0.132000000     4.479000000
H     4.295000000    -0.702000000     4.420000000
H     4.591000000     0.560000000     3.639000000
O     2.856000000    -2.191000000    -1.232000000
H     3.639000000    -2.395000000    -0.721000000
H     3.021000000    -2.580000000    -2.090000000
O    -0.565000000    -2.096000000    -7.462000000
H    -0.446000000    -1.499000000    -6.724000000
H     0.290000000    -2.122000000    -7.890000000
O    -4.764000000     1.822000000     3.506000000
H    -4.029000000     2.387000000     3.742000000
H    -5.506000000     2.179000000     3.994000000
O    -4.059000000    -0.282000000     5.226000000
H    -3.533000000    -0.575000000     4.482000000
H    -4.625000000     0.400000000     4.865000000
O     1.811000000     2.702000000    -5.609000000
H     1.801000000     2.158000000    -4.822000000
H     2.291000000     2.183000000    -6.254000000
O    -2.792000000    -4.442000000    -2.777000000
H    -1.948000000    -4.717000000    -3.135000000
H    -2.902000000    -3.542000000    -3.084000000
O     2.853000000    -2.577000000    -7.299000000
H     3.801000000    -2.549000000    -7.430000000
H     2.685000000    -1.921000000    -6.623000000
O    -2.803000000    -3.156000000     4.030000000
H    -3.754000000    -3.185000000     3.918000000
H    -2.455000000    -3.258000000     3.144000000
O    -5.392000000    -3.533000000     2.748000000
H    -6.278000000    -3.590000000     3.105000000
H    -5.503000000    -3.673000000     1.808000000
O     1.257000000    -5.770000000     1.652000000
H     1.284000000    -4.917000000     1.218000000
H     0.554000000    -5.688000000     2.297000000
O    -1.846000000    -0.411000000     7.059000000
H    -2.626000000    -0.377000000     6.505000000
H    -1.738000000     0.486000000     7.377000000
O     5.754000000     0.564000000     0.570000000
H     5.062000000    -0.026000000     0.868000000
H     5.382000000     1.003000000    -0.194000000
O     3.641000000     3.570000000     4.998000000
H     3.278000000     3.191000000     5.798000000
H     3.694000000     2.835000000     4.388000000
O     2.172000000    -3.839000000    -4.232000000
H     2.994000000    -4.310000000    -4.364000000
H     2.283000000    -3.022000000    -4.718000000
O    -0.940000000     5.311000000    -5.130000000
H    -0.718000000     4.636000000    -4.489000000
H    -1.546000000     4.880000000    -5.733000000
O     3.052000000    -1.729000000     4.888000000
H     3.613000000    -2.318000000     5.393000000
H     2.494000000    -1.309000000     5.542000000
O     0.521000000     6.048000000     1.457000000
H     1.123000000     5.779000000     0.763000000
H     1.090000000     6.282000000     2.190000000
O    -2.709000000     3.529000000     4.228000000
H    -1.985000000     3.213000000     4.769000000
H    -2.757000000     4.466000000     4.416000000
O     3.036000000     1.702000000     2.850000000
H     2.919000000     2.306000000     2.117000000
H     3.016000000     0.833000000     2.450000000
O    -3.010000000    -4.790000000     0.310000000
H    -2.725000000    -4.552000000    -0.573000000
H    -3.468000000    -4.013000000     0.631000000
O    -2.521000000    -2.188000000    -4.057000000
H    -3.214000000    -1.911000000    -4.655000000
H    -1.824000000    -1.545000000    -4.183000000
O     2.046000000     4.140000000    -1.674000000
H     2.294000000     3.240000000    -1.885000000
H     1.122000000     4.197000000    -1.916000000
O     3.263000000     6.408000000    -3.303000000
H     2.848000000     6.418000000    -4.165000000
H     2.821000000     5.701000000    -2.833000000
O     4.773000000     1.683000000    -1.801000000
H     4.877000000     2.563000000    -1.437000000
H     3.845000000     1.626000000    -2.029000000
O    -1.504000000    -5.322000000     2.651000000
H    -1.799000000    -5.217000000     1.747000000
H    -1.866000000    -6.165000000     2.924000000
O     0.877000000     3.325000000     4.007000000
H     0.770000000     3.798000000     3.182000000
H     1.716000000     2.873000000     3.917000000
O    -1.645000000     2.147000000     7.281000000
H    -1.154000000     2.891000000     6.932000000
H    -2.359000000     2.544000000     7.780000000
O     4.208000000     3.577000000     0.989000000
H     5.062000000     3.633000000     1.418000000
H     4.238000000     4.250000000     0.309000000
O     3.402000000    -0.549000000     1.387000000
H     3.521000000    -1.497000000     1.447000000
H     2.780000000    -0.430000000     0.670000000
