144
-2791.38099
O    -1.754000000     6.140000000     3.545000000
H    -1.137000000     6.096000000     4.276000000
H    -2.481000000     6.667000000     3.877000000
O    -3.311000000    -1.696000000    -1.276000000
H    -3.494000000    -1.566000000    -0.346000000
H    -2.743000000    -0.963000000    -1.513000000
O    -1.224000000     3.559000000    -0.706000000
H    -1.460000000     3.306000000    -1.598000000
H    -0.353000000     3.947000000    -0.790000000
O    -4.273000000    -1.048000000     1.647000000
H    -4.876000000    -0.801000000     2.349000000
H    -3.817000000    -0.235000000     1.428000000
O     1.185000000    -2.575000000    -5.990000000
H     1.046000000    -3.521000000    -5.936000000
H     1.376000000    -2.309000000    -5.090000000
O     4.479000000     3.628000000    -5.067000000
H     3.689000000     3.425000000    -4.566000000
H     4.614000000     2.859000000    -5.621000000
O     3.669000000    -3.790000000    -1.212000000
H     3.723000000    -2.902000000    -0.859000000
H     4.072000000    -3.729000000    -2.078000000
O    -5.768000000    -0.571000000     3.873000000
H    -5.335000000    -1.242000000     4.401000000
H    -6.602000000    -0.419000000     4.317000000
O     1.332000000     6.294000000    -3.304000000
H     1.233000000     5.778000000    -2.504000000
H     0.823000000     5.818000000    -3.960000000
O    -1.916000000     2.647000000     5.202000000
H    -1.002000000     2.368000000     5.144000000
H    -1.872000000     3.602000000     5.259000000
O    -2.844000000     4.918000000     1.013000000
H    -2.259000000     4.364000000     0.497000000
H    -2.290000000     5.264000000     1.714000000
O    -2.354000000     0.688000000    -2.168000000
H    -1.496000000     0.402000000    -2.480000000
H    -2.478000000     1.550000000    -2.565000000
O    -3.198000000     1.222000000     0.730000000
H    -2.888000000     0.904000000    -0.118000000
H    -2.422000000     1.601000000     1.143000000
O    -3.706000000    -4.417000000    -2.073000000
H    -3.489000000    -3.629000000    -1.574000000
H    -3.667000000    -4.139000000    -2.988000000
O    -2.188000000    -2.900000000    -4.340000000
H    -2.789000000    -2.220000000    -4.034000000
H    -1.340000000    -2.655000000    -3.970000000
O    -1.634000000    -5.703000000    -5.357000000
H    -1.814000000    -4.891000000    -4.883000000
H    -1.978000000    -5.549000000    -6.236000000
O     0.588000000    -4.336000000    -2.394000000
H     0.274000000    -3.500000000    -2.740000000
H     1.534000000    -4.315000000    -2.538000000
O    -4.927000000     3.132000000    -1.008000000
H    -5.440000000     2.443000000    -0.586000000
H    -4.020000000     2.932000000    -0.774000000
O    -3.511000000     0.973000000     6.589000000
H    -3.972000000     1.620000000     7.122000000
H    -3.060000000     1.490000000     5.922000000
O    -1.505000000    -2.223000000     5.482000000
H    -0.754000000    -1.629000000     5.448000000
H    -1.190000000    -3.030000000     5.075000000
O     1.977000000     0.581000000    -5.664000000
H     1.921000000     0.335000000    -4.740000000
H     2.804000000     1.057000000    -5.736000000
O     5.166000000    -2.595000000    -5.069000000
H     5.679000000    -1.874000000    -5.434000000
H     5.426000000    -2.632000000    -4.149000000
O    -0.802000000    -0.314000000    -5.554000000
H     0.054000000     0.092000000    -5.690000000
H    -0.724000000    -0.762000000    -4.712000000
O    -0.518000000    -4.189000000     3.668000000
H    -0.260000000    -5.079000000     3.907000000
H    -0.970000000    -4.287000000     2.830000000
O     1.358000000    -2.864000000     1.951000000
H     0.679000000    -2.473000000     1.401000000
H     0.936000000    -2.987000000     2.801000000
O    -3.953000000    -1.789000000     6.217000000
H    -3.839000000    -0.855000000     6.396000000
H    -3.153000000    -2.045000000     5.758000000
O     0.619000000    -0.434000000     5.258000000
H     0.626000000     0.499000000     5.472000000
H     1.542000000    -0.688000000     5.263000000
O     4.640000000    -1.258000000     0.432000000
H     5.122000000    -1.901000000     0.953000000
H     5.321000000    -0.735000000     0.008000000
O     2.957000000     3.235000000     3.979000000
H     3.506000000     3.989000000     3.763000000
H     3.088000000     2.627000000     3.251000000
O     2.647000000    -0.700000000    -7.873000000
H     2.530000000    -0.252000000    -7.035000000
H     2.798000000    -1.615000000    -7.636000000
O     0.707000000     2.194000000     5.769000000
H     1.257000000     2.618000000     5.110000000
H     1.098000000     2.447000000     6.606000000
O    -5.185000000     2.131000000     2.743000000
H    -5.125000000     1.305000000     3.223000000
H    -4.791000000     1.943000000     1.892000000
O    -5.858000000    -3.305000000     1.224000000
H    -6.624000000    -2.781000000     0.989000000
H    -5.165000000    -2.662000000     1.374000000
O     5.331000000     2.655000000     1.555000000
H     5.995000000     2.836000000     0.890000000
H     5.822000000     2.290000000     2.291000000
O    -4.849000000     4.513000000     4.660000000
H    -4.152000000     4.820000000     5.239000000
H    -4.578000000     3.631000000     4.405000000
O     3.559000000     0.333000000     2.272000000
H     3.896000000     1.158000000     1.921000000
H     3.807000000    -0.323000000     1.621000000
O    -2.097000000    -5.062000000     1.456000000
H    -1.844000000    -5.464000000     0.624000000
H    -2.933000000    -5.474000000     1.676000000
O    -1.125000000    -5.812000000    -1.030000000
H    -0.368000000    -5.283000000    -1.282000000
H    -1.811000000    -5.555000000    -1.646000000
O     2.201000000     3.268000000    -6.946000000
H     1.816000000     2.422000000    -6.719000000
H     2.072000000     3.344000000    -7.891000000
O    -1.517000000     2.963000000    -3.467000000
H    -2.202000000     2.877000000    -4.130000000
H    -0.844000000     3.499000000    -3.886000000
O     2.889000000     3.781000000    -2.537000000
H     3.539000000     4.419000000    -2.831000000
H     2.913000000     3.837000000    -1.582000000
O    -1.500000000    -2.280000000    -7.633000000
H    -1.485000000    -1.784000000    -6.814000000
H    -0.838000000    -2.961000000    -7.513000000
O     6.060000000    -0.070000000    -4.554000000
H     5.977000000     0.379000000    -5.395000000
H     5.264000000     0.166000000    -4.077000000
O     3.684000000     4.406000000     0.337000000
H     4.095000000     3.755000000     0.905000000
H     4.257000000     5.171000000     0.396000000
O     3.906000000     1.078000000    -3.241000000
H     3.691000000     1.766000000    -2.611000000
H     3.184000000     0.453000000    -3.169000000
O    -2.890000000     0.800000000    -6.876000000
H    -2.290000000     0.334000000    -6.294000000
H    -2.322000000     1.206000000    -7.530000000
O     1.039000000     5.065000000    -0.469000000
H     1.925000000     4.784000000    -0.242000000
H     0.845000000     5.769000000     0.150000000
O     3.397000000    -1.280000000     4.646000000
H     4.044000000    -0.817000000     5.179000000
H     3.281000000    -0.726000000     3.874000000
