144
-2810.59670
O    -4.921000000    -1.045000000    -1.990000000
H    -5.207000000    -1.290000000    -1.110000000
H    -4.119000000    -0.542000000    -1.850000000
O    -1.587000000    -3.153000000    -1.874000000
H    -1.049000000    -3.822000000    -1.450000000
H    -1.997000000    -2.681000000    -1.150000000
O     6.863000000    -1.069000000    -3.940000000
H     6.301000000    -1.832000000    -3.805000000
H     6.548000000    -0.680000000    -4.755000000
O    -5.098000000     3.270000000     1.669000000
H    -4.426000000     3.553000000     1.050000000
H    -4.717000000     3.439000000     2.531000000
O    -0.101000000    -5.008000000     0.225000000
H     0.076000000    -5.477000000    -0.591000000
H     0.764000000    -4.768000000     0.556000000
O     4.735000000    -1.685000000     0.627000000
H     4.107000000    -1.894000000    -0.065000000
H     5.369000000    -2.402000000     0.600000000
O    -1.516000000    -1.709000000    -4.275000000
H    -0.871000000    -1.896000000    -4.957000000
H    -1.146000000    -2.099000000    -3.483000000
O    -2.582000000     0.900000000    -4.152000000
H    -3.538000000     0.940000000    -4.190000000
H    -2.369000000     0.012000000    -4.439000000
O     4.236000000     1.207000000    -2.181000000
H     4.474000000     1.747000000    -2.935000000
H     4.969000000     0.599000000    -2.080000000
O     2.333000000    -4.205000000     1.268000000
H     2.721000000    -3.706000000     0.549000000
H     2.508000000    -3.677000000     2.048000000
O    -1.731000000    -0.098000000     4.759000000
H    -2.057000000     0.747000000     5.069000000
H    -0.781000000     0.013000000     4.717000000
O     5.773000000    -3.873000000    -4.066000000
H     6.552000000    -4.357000000    -3.790000000
H     5.050000000    -4.308000000    -3.615000000
O    -4.487000000     3.612000000     4.664000000
H    -3.684000000     3.373000000     5.128000000
H    -5.012000000     2.812000000     4.666000000
O    -2.558000000    -1.363000000     0.607000000
H    -3.193000000    -1.060000000     1.256000000
H    -1.845000000    -0.726000000     0.654000000
O    -5.334000000     6.059000000    -1.187000000
H    -6.118000000     6.092000000    -0.638000000
H    -4.713000000     5.530000000    -0.687000000
O     3.236000000    -5.379000000    -5.357000000
H     3.691000000    -4.961000000    -6.088000000
H     3.037000000    -6.261000000    -5.672000000
O    -1.841000000     6.702000000    -0.999000000
H    -1.989000000     6.568000000    -1.935000000
H    -2.597000000     6.295000000    -0.576000000
O     3.672000000    -4.789000000    -2.389000000
H     2.930000000    -5.102000000    -2.906000000
H     3.418000000    -3.908000000    -2.115000000
O     4.740000000    -7.130000000    -2.810000000
H     5.078000000    -7.068000000    -3.703000000
H     4.372000000    -6.264000000    -2.632000000
O     2.223000000     2.049000000     4.560000000
H     1.825000000     1.223000000     4.285000000
H     2.511000000     2.460000000     3.745000000
O     6.336000000     0.458000000     1.078000000
H     6.327000000     0.963000000     0.265000000
H     5.863000000    -0.346000000     0.866000000
O     3.039000000     3.265000000     2.006000000
H     3.917000000     3.167000000     2.374000000
H     3.162000000     3.164000000     1.062000000
O     2.527000000    -6.830000000     2.075000000
H     2.556000000    -5.979000000     1.637000000
H     2.144000000    -6.644000000     2.933000000
O     2.100000000    -2.886000000    -5.241000000
H     2.008000000    -2.513000000    -4.364000000
H     2.437000000    -3.769000000    -5.091000000
O    -2.279000000    -4.304000000     1.498000000
H    -2.286000000    -3.398000000     1.189000000
H    -1.459000000    -4.665000000     1.161000000
O    -0.159000000    -1.468000000    -6.653000000
H     0.075000000    -2.356000000    -6.920000000
H     0.648000000    -1.106000000    -6.288000000
O    -5.735000000     0.952000000     4.550000000
H    -5.769000000     0.464000000     5.373000000
H    -6.292000000     0.453000000     3.953000000
O    -1.913000000    -2.843000000     5.248000000
H    -2.198000000    -1.973000000     4.967000000
H    -0.983000000    -2.875000000     5.020000000
O    -4.561000000    -0.945000000     2.527000000
H    -4.321000000    -1.469000000     3.291000000
H    -4.823000000    -0.099000000     2.890000000
O    -4.136000000    -2.218000000    -5.270000000
H    -3.390000000    -1.778000000    -4.862000000
H    -3.807000000    -2.507000000    -6.121000000
O     0.930000000    -2.803000000     4.872000000
H     1.460000000    -2.661000000     4.088000000
H     0.986000000    -1.978000000     5.353000000
O     3.150000000    -0.363000000    -4.052000000
H     2.785000000    -1.120000000    -3.593000000
H     3.349000000     0.265000000    -3.357000000
O     1.283000000     4.293000000    -2.743000000
H     0.584000000     4.183000000    -3.388000000
H     1.668000000     5.145000000    -2.950000000
O    -1.713000000     3.356000000    -2.715000000
H    -2.080000000     2.517000000    -2.995000000
H    -1.863000000     3.943000000    -3.456000000
O    -2.184000000     2.315000000     6.019000000
H    -2.543000000     2.548000000     6.875000000
H    -1.474000000     2.942000000     5.878000000
O     3.053000000    -2.723000000     3.220000000
H     3.559000000    -1.929000000     3.047000000
H     3.644000000    -3.277000000     3.730000000
O    -2.042000000     5.088000000     2.358000000
H    -2.168000000     5.997000000     2.628000000
H    -1.128000000     4.899000000     2.573000000
O     0.052000000     1.731000000    -4.348000000
H    -0.598000000     1.028000000    -4.330000000
H     0.110000000     2.027000000    -3.440000000
O     4.712000000    -1.518000000    -6.000000000
H     4.160000000    -1.281000000    -5.255000000
H     4.130000000    -2.004000000    -6.584000000
O     0.232000000     4.981000000    -0.076000000
H     0.539000000     4.635000000    -0.914000000
H    -0.432000000     5.628000000    -0.313000000
O    -0.159000000     2.199000000    -7.069000000
H    -0.304000000     2.325000000    -6.131000000
H     0.653000000     1.693000000    -7.120000000
O    -7.056000000     3.211000000    -0.244000000
H    -6.945000000     2.694000000    -1.042000000
H    -6.351000000     2.916000000     0.333000000
O     2.298000000     1.245000000    -6.606000000
H     2.534000000     0.887000000    -5.750000000
H     2.959000000     1.916000000    -6.776000000
O     2.719000000     3.070000000    -0.799000000
H     2.905000000     2.292000000    -1.326000000
H     2.075000000     3.558000000    -1.313000000
O     0.735000000     4.606000000     2.784000000
H     1.331000000     3.858000000     2.813000000
H     0.567000000     4.743000000     1.851000000
O     6.549000000    -4.303000000    -1.132000000
H     6.189000000    -4.530000000    -0.274000000
H     5.781000000    -4.122000000    -1.674000000
O    -3.358000000     4.451000000    -0.133000000
H    -2.681000000     3.898000000    -0.522000000
H    -3.029000000     4.651000000     0.744000000
O     0.802000000    -0.517000000     6.073000000
H     0.132000000    -0.722000000     6.725000000
H     1.266000000     0.238000000     6.436000000
