144
-2805.68100
O    -2.562000000     7.652000000    -1.365000000
H    -2.055000000     8.370000000    -0.985000000
H    -2.161000000     6.860000000    -1.008000000
O    -3.970000000     4.812000000     3.113000000
H    -4.829000000     4.989000000     2.731000000
H    -3.994000000     3.881000000     3.335000000
O    -3.356000000    -2.729000000    -0.354000000
H    -3.824000000    -2.455000000     0.435000000
H    -3.884000000    -2.388000000    -1.076000000
O    -2.767000000    -1.359000000    -4.361000000
H    -1.920000000    -1.521000000    -4.776000000
H    -2.732000000    -1.854000000    -3.543000000
O    -1.222000000     2.449000000     4.795000000
H    -0.343000000     2.626000000     4.462000000
H    -1.615000000     3.315000000     4.906000000
O     2.313000000    -6.344000000     2.159000000
H     2.482000000    -5.460000000     1.833000000
H     3.175000000    -6.761000000     2.175000000
O     6.228000000    -0.406000000     1.799000000
H     5.499000000    -0.554000000     1.197000000
H     6.257000000    -1.195000000     2.340000000
O    -2.323000000     1.456000000    -4.608000000
H    -1.590000000     1.089000000    -5.102000000
H    -2.761000000     0.694000000    -4.230000000
O     3.168000000     0.882000000    -3.588000000
H     2.604000000     0.905000000    -4.360000000
H     2.580000000     1.068000000    -2.856000000
O     4.436000000    -4.383000000    -1.609000000
H     3.729000000    -3.838000000    -1.264000000
H     4.196000000    -4.536000000    -2.523000000
O     3.442000000     2.179000000     2.329000000
H     3.672000000     2.004000000     1.417000000
H     4.224000000     2.588000000     2.700000000
O     2.601000000    -5.388000000    -6.023000000
H     1.705000000    -5.261000000    -6.333000000
H     2.705000000    -4.744000000    -5.322000000
O    -1.177000000    -4.200000000     0.780000000
H    -0.859000000    -3.585000000     1.441000000
H    -1.891000000    -3.736000000     0.344000000
O    -0.008000000    -4.437000000    -6.501000000
H    -0.375000000    -5.303000000    -6.323000000
H    -0.531000000    -4.099000000    -7.228000000
O     1.468000000    -5.315000000    -2.015000000
H     2.131000000    -5.251000000    -1.327000000
H     1.212000000    -4.409000000    -2.186000000
O     4.499000000    -0.264000000    -0.667000000
H     4.969000000    -0.258000000    -1.501000000
H     3.989000000    -1.073000000    -0.686000000
O    -6.336000000     2.731000000     1.050000000
H    -6.898000000     2.299000000     0.407000000
H    -5.832000000     2.019000000     1.444000000
O     2.067000000     2.045000000    -1.106000000
H     1.962000000     1.254000000    -0.577000000
H     2.809000000     2.502000000    -0.709000000
O    -1.618000000    -3.609000000    -2.206000000
H    -0.759000000    -3.282000000    -1.940000000
H    -2.188000000    -3.421000000    -1.460000000
O    -0.029000000    -2.143000000    -4.898000000
H     0.317000000    -2.461000000    -4.064000000
H    -0.038000000    -2.916000000    -5.463000000
O     5.613000000    -2.955000000     2.977000000
H     5.778000000    -3.882000000     3.150000000
H     4.684000000    -2.914000000     2.751000000
O     3.957000000    -7.556000000    -0.092000000
H     4.427000000    -6.722000000    -0.086000000
H     4.425000000    -8.089000000    -0.735000000
O    -0.592000000    -0.002000000    -6.518000000
H     0.007000000     0.744000000    -6.540000000
H    -0.070000000    -0.719000000    -6.159000000
O    -2.209000000     0.059000000     4.007000000
H    -1.844000000     0.917000000     4.223000000
H    -2.088000000    -0.460000000     4.802000000
O    -5.083000000    -1.803000000    -2.162000000
H    -5.880000000    -1.855000000    -1.635000000
H    -5.251000000    -1.093000000    -2.782000000
O     0.563000000    -7.616000000    -2.745000000
H     0.626000000    -6.703000000    -2.462000000
H     1.373000000    -7.772000000    -3.231000000
O     3.879000000    -3.554000000     5.212000000
H     3.127000000    -3.138000000     4.790000000
H     3.920000000    -4.427000000     4.821000000
O    -0.816000000    -1.868000000     2.646000000
H    -0.772000000    -1.331000000     1.855000000
H    -1.290000000    -1.326000000     3.277000000
O    -2.344000000     1.005000000     7.498000000
H    -1.565000000     0.858000000     6.961000000
H    -3.055000000     0.596000000     7.006000000
O     1.636000000    -2.264000000     3.827000000
H     2.000000000    -1.384000000     3.921000000
H     0.689000000    -2.128000000     3.783000000
O     2.187000000    -1.512000000    -6.672000000
H     2.583000000    -2.158000000    -7.256000000
H     1.883000000    -2.023000000    -5.922000000
O     2.809000000    -3.798000000     1.454000000
H     2.111000000    -3.386000000     1.965000000
H     2.799000000    -3.333000000     0.618000000
O     6.180000000    -5.855000000    -0.198000000
H     5.656000000    -5.162000000    -0.601000000
H     6.874000000    -6.031000000    -0.833000000
O    -1.117000000     6.085000000     0.283000000
H    -0.207000000     6.384000000     0.281000000
H    -1.065000000     5.156000000     0.062000000
O     1.346000000     2.968000000     3.941000000
H     2.193000000     2.761000000     3.546000000
H     1.384000000     3.910000000     4.109000000
O     3.088000000    -0.109000000     4.085000000
H     3.257000000     0.707000000     3.614000000
H     3.861000000    -0.647000000     3.917000000
O    -4.298000000     1.958000000     3.915000000
H    -3.742000000     1.179000000     3.898000000
H    -4.558000000     2.047000000     4.832000000
O    -5.332000000     0.555000000    -3.813000000
H    -5.320000000     1.500000000    -3.659000000
H    -5.163000000     0.463000000    -4.750000000
O     0.317000000     4.177000000    -1.042000000
H    -0.382000000     3.939000000    -1.652000000
H     0.829000000     3.374000000    -0.939000000
O    -2.492000000    -5.131000000    -4.802000000
H    -1.852000000    -5.832000000    -4.926000000
H    -2.169000000    -4.644000000    -4.044000000
O    -1.524000000     3.829000000    -3.070000000
H    -1.629000000     4.387000000    -3.840000000
H    -1.611000000     2.937000000    -3.406000000
O     4.856000000     2.836000000    -0.267000000
H     5.164000000     3.533000000    -0.847000000
H     5.597000000     2.233000000    -0.203000000
O     5.294000000    -1.405000000    -3.790000000
H     4.766000000    -0.611000000    -3.712000000
H     6.028000000    -1.264000000    -3.193000000
O     7.281000000    -3.088000000    -0.973000000
H     6.450000000    -3.557000000    -0.889000000
H     7.673000000    -3.437000000    -1.773000000
O     2.479000000     4.969000000     1.552000000
H     1.937000000     4.726000000     2.302000000
H     2.564000000     4.161000000     1.046000000
O     3.182000000    -3.277000000    -4.126000000
H     2.630000000    -3.229000000    -3.345000000
H     3.791000000    -2.545000000    -4.034000000
O    -2.990000000     7.328000000     1.873000000
H    -2.557000000     7.023000000     1.075000000
H    -3.206000000     6.527000000     2.350000000
O     1.225000000     1.035000000     6.018000000
H     0.955000000     1.824000000     5.549000000
H     1.846000000     0.606000000     5.429000000
