144
-2811.79222
O    -4.209000000    -6.052000000     1.439000000
H    -4.818000000    -5.342000000     1.238000000
H    -3.341000000    -5.659000000     1.342000000
O     3.767000000    -8.168000000    -0.691000000
H     3.242000000    -8.811000000    -1.168000000
H     3.321000000    -7.335000000    -0.843000000
O    -4.388000000     1.505000000     2.898000000
H    -5.103000000     1.123000000     3.407000000
H    -3.647000000     1.524000000     3.503000000
O    -3.651000000    -4.032000000    -1.508000000
H    -4.425000000    -4.048000000    -0.945000000
H    -3.473000000    -4.954000000    -1.697000000
O     5.552000000    -2.060000000    -5.852000000
H     5.461000000    -2.880000000    -6.336000000
H     4.670000000    -1.689000000    -5.842000000
O    -0.089000000     4.501000000    -0.669000000
H    -0.425000000     3.717000000    -1.103000000
H    -0.861000000     5.050000000    -0.534000000
O    -2.318000000     1.140000000     4.612000000
H    -2.950000000     1.649000000     5.119000000
H    -1.556000000     1.063000000     5.186000000
O     1.626000000     5.898000000     5.155000000
H     1.840000000     5.371000000     5.925000000
H     1.203000000     5.284000000     4.554000000
O     5.114000000    -0.844000000    -2.011000000
H     5.687000000    -1.465000000    -2.460000000
H     4.242000000    -1.235000000    -2.074000000
O     3.026000000    -5.423000000    -0.962000000
H     2.322000000    -4.849000000    -1.261000000
H     3.540000000    -4.881000000    -0.364000000
O     2.245000000     6.002000000     0.547000000
H     2.653000000     5.305000000     1.062000000
H     1.407000000     5.633000000     0.267000000
O     7.062000000    -2.443000000    -3.293000000
H     6.506000000    -2.596000000    -4.057000000
H     7.845000000    -2.022000000    -3.647000000
O    -1.313000000     5.753000000     3.323000000
H    -1.150000000     6.642000000     3.006000000
H    -0.643000000     5.220000000     2.896000000
O     3.864000000    -5.168000000    -5.720000000
H     3.587000000    -4.346000000    -5.316000000
H     4.273000000    -5.659000000    -5.008000000
O    -4.393000000    -0.326000000    -2.542000000
H    -4.385000000    -0.293000000    -1.585000000
H    -3.496000000    -0.561000000    -2.781000000
O    -2.206000000    -1.767000000     4.959000000
H    -2.455000000    -0.988000000     4.462000000
H    -1.587000000    -1.445000000     5.614000000
O    -4.346000000     4.002000000     1.673000000
H    -3.984000000     3.260000000     2.157000000
H    -4.526000000     4.661000000     2.344000000
O    -2.093000000    -1.978000000    -2.974000000
H    -1.265000000    -2.457000000    -3.010000000
H    -2.711000000    -2.597000000    -2.586000000
O     0.121000000    -3.768000000    -3.620000000
H     0.639000000    -3.568000000    -4.399000000
H     0.713000000    -3.597000000    -2.888000000
O    -2.016000000    -4.324000000     1.354000000
H    -1.080000000    -4.165000000     1.476000000
H    -2.110000000    -4.495000000     0.417000000
O     0.523000000    -4.393000000     0.964000000
H     1.300000000    -4.482000000     1.516000000
H     0.863000000    -4.118000000     0.113000000
O     4.715000000    -3.725000000     0.601000000
H     5.661000000    -3.860000000     0.557000000
H     4.602000000    -2.781000000     0.494000000
O    -6.288000000     2.640000000     0.355000000
H    -6.720000000     2.434000000     1.184000000
H    -5.660000000     3.327000000     0.577000000
O    -3.819000000     2.978000000     5.982000000
H    -4.513000000     3.034000000     6.640000000
H    -3.328000000     3.793000000     6.082000000
O     2.367000000    -0.130000000    -4.110000000
H     2.682000000    -0.619000000    -3.350000000
H     2.727000000     0.749000000    -3.995000000
O     4.328000000    -1.095000000     1.186000000
H     4.875000000    -0.355000000     1.450000000
H     3.443000000    -0.846000000     1.453000000
O     4.850000000    -5.944000000    -3.193000000
H     4.037000000    -5.629000000    -2.797000000
H     5.408000000    -6.166000000    -2.448000000
O    -1.669000000     0.681000000    -2.793000000
H    -1.371000000     0.964000000    -1.929000000
H    -1.698000000    -0.274000000    -2.735000000
O    -3.539000000     3.137000000    -1.739000000
H    -3.449000000     2.330000000    -1.232000000
H    -3.300000000     3.832000000    -1.126000000
O    -3.541000000    -3.761000000     3.839000000
H    -3.167000000    -3.889000000     2.967000000
H    -3.051000000    -3.025000000     4.205000000
O     0.334000000    -6.496000000    -2.433000000
H     1.232000000    -6.813000000    -2.533000000
H     0.363000000    -5.592000000    -2.745000000
O     0.226000000    -1.801000000     3.620000000
H    -0.674000000    -1.950000000     3.909000000
H     0.136000000    -1.384000000     2.763000000
O     0.046000000    -7.107000000     0.470000000
H    -0.354000000    -7.230000000    -0.391000000
H     0.163000000    -6.160000000     0.547000000
O     0.671000000    -2.149000000    -6.331000000
H    -0.278000000    -2.205000000    -6.224000000
H     0.803000000    -1.404000000    -6.917000000
O     4.203000000     1.025000000     3.259000000
H     5.102000000     1.055000000     3.585000000
H     3.728000000     0.511000000     3.912000000
O     2.906000000    -4.603000000     2.173000000
H     3.731000000    -4.346000000     1.761000000
H     2.876000000    -5.555000000     2.077000000
O     5.131000000     1.942000000    -1.038000000
H     5.687000000     2.089000000    -0.273000000
H     5.405000000     1.087000000    -1.372000000
O     0.172000000     2.742000000     5.650000000
H     0.367000000     3.270000000     6.424000000
H     0.199000000     3.364000000     4.923000000
O     0.946000000     3.737000000     3.127000000
H     0.478000000     3.126000000     2.558000000
H     1.872000000     3.566000000     2.952000000
O    -4.629000000     0.704000000    -0.012000000
H    -4.253000000     0.748000000     0.867000000
H    -5.303000000     1.384000000    -0.018000000
O    -6.257000000    -1.259000000     1.119000000
H    -6.330000000    -1.184000000     2.071000000
H    -5.860000000    -0.434000000     0.843000000
O     2.105000000     0.362000000    -6.809000000
H     1.576000000     1.127000000    -6.587000000
H     2.503000000     0.096000000    -5.980000000
O     0.528000000     2.592000000    -3.583000000
H     1.420000000     2.330000000    -3.352000000
H    -0.008000000     1.829000000    -3.365000000
O     3.095000000     2.265000000    -2.905000000
H     3.646000000     2.223000000    -2.123000000
H     3.395000000     3.047000000    -3.368000000
O     3.527000000     3.266000000     1.793000000
H     3.721000000     2.506000000     2.341000000
H     4.195000000     3.244000000     1.108000000
O     6.367000000     1.028000000    -4.438000000
H     5.823000000     0.832000000    -5.201000000
H     5.939000000     0.570000000    -3.715000000
O     2.785000000    -3.013000000    -4.757000000
H     2.687000000    -2.581000000    -3.908000000
H     2.113000000    -2.613000000    -5.308000000
O    -2.611000000     5.499000000    -0.450000000
H    -3.179000000     5.620000000     0.311000000
H    -2.550000000     6.370000000    -0.844000000
