144
-2834.91404
O    -3.094000000    -0.746000000     3.400000000
H    -3.518000000    -0.103000000     3.969000000
H    -2.245000000    -0.907000000     3.813000000
O    -6.975000000    -0.046000000     3.080000000
H    -7.435000000    -0.170000000     3.910000000
H    -6.222000000     0.501000000     3.303000000
O     0.682000000     4.470000000    -0.919000000
H     0.401000000     3.704000000    -1.419000000
H     1.250000000     4.116000000    -0.235000000
O    -2.324000000     1.016000000     6.315000000
H    -2.715000000     1.529000000     7.023000000
H    -2.339000000     1.602000000     5.558000000
O    -3.379000000     3.159000000    -3.535000000
H    -3.175000000     2.514000000    -2.857000000
H    -3.113000000     3.997000000    -3.157000000
O     2.618000000     6.272000000     4.076000000
H     2.103000000     6.224000000     4.881000000
H     2.687000000     5.364000000     3.782000000
O     5.567000000    -2.989000000    -3.504000000
H     6.373000000    -3.115000000    -4.006000000
H     4.889000000    -3.415000000    -4.030000000
O     2.678000000    -4.716000000    -3.107000000
H     2.293000000    -3.884000000    -3.383000000
H     2.875000000    -4.592000000    -2.179000000
O     3.220000000     6.100000000    -1.002000000
H     2.887000000     5.762000000    -1.833000000
H     3.167000000     5.356000000    -0.402000000
O    -5.355000000     1.780000000     4.397000000
H    -5.698000000     2.197000000     5.187000000
H    -5.016000000     2.504000000     3.871000000
O    -2.452000000     6.094000000    -0.031000000
H    -1.668000000     5.682000000     0.332000000
H    -2.493000000     6.950000000     0.396000000
O    -2.316000000     5.837000000     4.114000000
H    -1.563000000     6.135000000     3.603000000
H    -1.942000000     5.248000000     4.769000000
O     1.083000000    -5.001000000    -6.800000000
H     1.516000000    -4.316000000    -6.290000000
H     0.423000000    -5.360000000    -6.208000000
O    -0.556000000    -1.001000000     4.414000000
H    -0.026000000    -0.344000000     4.865000000
H     0.045000000    -1.406000000     3.788000000
O    -4.634000000     4.209000000     3.662000000
H    -3.845000000     4.725000000     3.494000000
H    -5.355000000     4.828000000     3.541000000
O    -2.817000000    -2.249000000    -2.224000000
H    -2.528000000    -2.726000000    -3.002000000
H    -3.708000000    -2.561000000    -2.070000000
O    -1.142000000    -3.244000000    -4.032000000
H    -1.221000000    -2.684000000    -4.804000000
H    -0.331000000    -2.958000000    -3.611000000
O    -3.071000000    -5.120000000    -0.905000000
H    -3.744000000    -4.453000000    -0.771000000
H    -2.301000000    -4.779000000    -0.450000000
O     0.138000000    -4.851000000    -0.191000000
H     1.059000000    -5.110000000    -0.167000000
H     0.060000000    -4.318000000    -0.982000000
O     3.089000000    -4.809000000     0.205000000
H     3.847000000    -5.373000000     0.357000000
H     3.439000000    -3.920000000     0.250000000
O    -5.902000000     2.824000000     0.997000000
H    -5.601000000     3.679000000     0.689000000
H    -5.209000000     2.217000000     0.736000000
O     0.339000000    -7.856000000     0.348000000
H    -0.202000000    -7.217000000     0.813000000
H     0.578000000    -7.417000000    -0.468000000
O     1.783000000     1.193000000    -3.614000000
H     1.665000000     0.303000000    -3.283000000
H     2.710000000     1.381000000    -3.470000000
O     5.299000000    -2.909000000    -0.594000000
H     5.633000000    -2.012000000    -0.598000000
H     5.241000000    -3.147000000    -1.519000000
O     3.985000000    -5.741000000    -5.210000000
H     3.578000000    -5.400000000    -4.413000000
H     3.265000000    -5.809000000    -5.837000000
O    -2.443000000     0.565000000    -2.204000000
H    -1.632000000     0.496000000    -1.699000000
H    -2.810000000    -0.319000000    -2.189000000
O    -0.379000000    -5.956000000    -4.667000000
H    -1.103000000    -6.400000000    -4.225000000
H    -0.542000000    -5.025000000    -4.516000000
O    -0.932000000    -3.998000000     3.890000000
H    -1.583000000    -3.347000000     3.629000000
H    -0.337000000    -3.523000000     4.471000000
O     1.340000000    -1.348000000     2.612000000
H     0.961000000    -0.863000000     1.879000000
H     1.608000000    -2.185000000     2.233000000
O     1.125000000    -6.891000000    -2.221000000
H     0.405000000    -6.543000000    -2.747000000
H     1.896000000    -6.410000000    -2.521000000
O     2.092000000    -0.725000000    -7.439000000
H     1.430000000    -1.319000000    -7.792000000
H     1.595000000    -0.093000000    -6.919000000
O    -2.522000000    -6.837000000    -3.272000000
H    -2.378000000    -7.623000000    -2.745000000
H    -2.641000000    -6.137000000    -2.630000000
O     2.294000000     0.109000000     4.726000000
H     3.228000000     0.105000000     4.516000000
H     1.889000000    -0.404000000     4.026000000
O     1.903000000    -4.571000000     2.675000000
H     2.053000000    -4.728000000     1.743000000
H     1.248000000    -5.223000000     2.926000000
O     2.695000000     3.262000000     4.099000000
H     3.482000000     2.737000000     4.244000000
H     2.202000000     3.187000000     4.917000000
O    -0.822000000     4.166000000     5.854000000
H    -0.090000000     3.572000000     6.018000000
H    -1.000000000     4.568000000     6.704000000
O    -0.095000000     5.757000000     1.887000000
H     0.799000000     5.415000000     1.882000000
H    -0.009000000     6.658000000     1.576000000
O     1.381000000     2.513000000     6.467000000
H     1.651000000     1.706000000     6.030000000
H     1.164000000     2.242000000     7.359000000
O     7.694000000     0.800000000    -0.401000000
H     6.768000000     0.805000000    -0.161000000
H     7.695000000     0.900000000    -1.353000000
O    -4.954000000    -1.859000000     1.481000000
H    -4.148000000    -1.485000000     1.838000000
H    -5.654000000    -1.339000000     1.877000000
O     0.409000000     0.940000000    -6.264000000
H    -0.519000000     0.706000000    -6.225000000
H     0.649000000     1.118000000    -5.355000000
O    -0.277000000     2.380000000    -2.514000000
H     0.500000000     1.963000000    -2.885000000
H    -0.949000000     2.277000000    -3.188000000
O     4.431000000     1.940000000    -3.203000000
H     4.287000000     2.711000000    -2.654000000
H     5.371000000     1.945000000    -3.382000000
O    -0.277000000     6.107000000    -2.995000000
H     0.125000000     5.471000000    -3.587000000
H    -0.138000000     5.741000000    -2.121000000
O     2.536000000     3.948000000     1.195000000
H     2.469000000     3.339000000     1.931000000
H     3.293000000     4.495000000     1.405000000
O     5.411000000    -0.357000000    -1.928000000
H     5.003000000     0.442000000    -2.261000000
H     5.332000000    -0.984000000    -2.647000000
O     2.295000000    -2.518000000    -5.284000000
H     2.368000000    -2.169000000    -4.396000000
H     2.502000000    -1.775000000    -5.851000000
O    -2.818000000     5.546000000    -2.644000000
H    -2.682000000     5.887000000    -1.760000000
H    -1.974000000     5.666000000    -3.079000000
