144
-2797.12898
O     4.809000000     4.591000000    -0.478000000
H     4.625000000     4.292000000    -1.368000000
H     4.165000000     5.280000000    -0.318000000
O     0.237000000    -5.643000000    -0.344000000
H     0.499000000    -4.913000000     0.217000000
H     0.238000000    -6.404000000     0.236000000
O    -3.783000000    -4.766000000     5.993000000
H    -3.017000000    -4.310000000     5.644000000
H    -4.214000000    -5.135000000     5.221000000
O     6.197000000     1.636000000     1.340000000
H     6.550000000     1.953000000     0.509000000
H     5.561000000     2.302000000     1.600000000
O    -7.057000000    -1.842000000     3.287000000
H    -7.255000000    -1.875000000     2.351000000
H    -6.101000000    -1.809000000     3.328000000
O     0.749000000    -4.562000000     2.550000000
H     1.121000000    -3.832000000     3.043000000
H     0.005000000    -4.181000000     2.082000000
O     1.665000000    -2.748000000    -5.156000000
H     1.645000000    -3.346000000    -4.409000000
H     1.774000000    -3.319000000    -5.917000000
O     1.441000000    -6.616000000     4.214000000
H     0.548000000    -6.681000000     4.552000000
H     1.468000000    -5.768000000     3.770000000
O     1.026000000    -4.036000000    -2.792000000
H     0.744000000    -4.634000000    -3.484000000
H     0.530000000    -4.310000000    -2.021000000
O    -4.901000000    -5.733000000     3.788000000
H    -5.838000000    -5.592000000     3.650000000
H    -4.485000000    -5.354000000     3.014000000
O    -2.163000000    -3.921000000    -1.224000000
H    -1.676000000    -3.772000000    -0.413000000
H    -2.265000000    -4.871000000    -1.271000000
O    -1.564000000     3.326000000     3.123000000
H    -2.402000000     3.272000000     2.663000000
H    -1.349000000     4.259000000     3.118000000
O     3.653000000    -1.022000000    -5.203000000
H     3.396000000    -0.881000000    -6.114000000
H     3.064000000    -1.709000000    -4.892000000
O     3.201000000    -1.830000000    -0.621000000
H     2.398000000    -2.344000000    -0.534000000
H     3.209000000    -1.267000000     0.153000000
O    -2.992000000     4.722000000    -0.868000000
H    -2.805000000     3.789000000    -0.769000000
H    -3.795000000     4.861000000    -0.366000000
O    -0.733000000    -0.812000000    -5.596000000
H    -0.464000000    -0.600000000    -6.490000000
H    -0.083000000    -1.447000000    -5.294000000
O     4.589000000     3.900000000     2.128000000
H     4.244000000     4.747000000     2.412000000
H     4.784000000     4.021000000     1.199000000
O    -0.285000000    -7.691000000     1.257000000
H    -0.018000000    -7.724000000     2.175000000
H    -1.221000000    -7.890000000     1.272000000
O    -3.352000000    -4.888000000     1.638000000
H    -2.821000000    -4.092000000     1.658000000
H    -2.804000000    -5.553000000     2.054000000
O     2.812000000     2.214000000     3.046000000
H     2.814000000     2.030000000     3.985000000
H     3.458000000     2.912000000     2.937000000
O     3.165000000    -6.063000000     0.855000000
H     2.217000000    -6.012000000     0.973000000
H     3.457000000    -6.678000000     1.529000000
O     0.576000000     6.278000000     0.306000000
H     1.201000000     5.602000000     0.041000000
H     0.450000000     6.808000000    -0.481000000
O    -5.445000000     0.885000000     5.312000000
H    -4.804000000     1.261000000     5.915000000
H    -4.994000000     0.139000000     4.918000000
O    -4.463000000    -1.466000000     3.546000000
H    -3.622000000    -1.800000000     3.237000000
H    -4.561000000    -0.620000000     3.108000000
O    -2.552000000    -7.074000000     3.235000000
H    -3.306000000    -6.670000000     3.665000000
H    -2.125000000    -7.581000000     3.927000000
O     3.597000000    -5.603000000    -2.200000000
H     3.802000000    -5.538000000    -1.267000000
H     2.642000000    -5.664000000    -2.232000000
O    -5.502000000     0.534000000     1.633000000
H    -6.343000000     0.081000000     1.565000000
H    -5.013000000     0.249000000     0.861000000
O     4.203000000     3.504000000    -3.067000000
H     4.247000000     2.564000000    -3.240000000
H     3.809000000     3.874000000    -3.857000000
O    -1.656000000    -4.007000000     4.469000000
H    -0.837000000    -4.381000000     4.146000000
H    -1.737000000    -3.172000000     4.010000000
O     1.846000000     1.928000000     6.211000000
H     1.345000000     1.717000000     5.424000000
H     1.410000000     1.442000000     6.911000000
O     1.222000000     3.746000000    -6.584000000
H     0.562000000     4.368000000    -6.277000000
H     2.000000000     3.946000000    -6.065000000
O     1.543000000    -2.705000000     4.316000000
H     2.408000000    -2.480000000     4.659000000
H     0.930000000    -2.318000000     4.941000000
O     1.381000000     6.433000000     3.008000000
H     1.301000000     6.140000000     2.101000000
H     0.553000000     6.877000000     3.190000000
O    -4.890000000    -2.847000000    -0.341000000
H    -5.188000000    -3.297000000    -1.132000000
H    -3.978000000    -3.119000000    -0.240000000
O     1.511000000     6.797000000    -3.984000000
H     0.831000000     6.266000000    -3.568000000
H     1.321000000     7.692000000    -3.704000000
O    -3.997000000     1.456000000    -2.462000000
H    -4.614000000     2.153000000    -2.240000000
H    -3.886000000     0.965000000    -1.648000000
O    -1.931000000    -0.021000000     4.923000000
H    -1.899000000    -0.716000000     4.265000000
H    -1.291000000     0.624000000     4.621000000
O    -0.762000000     5.153000000    -2.789000000
H    -1.555000000     5.072000000    -2.259000000
H    -0.811000000     4.423000000    -3.406000000
O     0.286000000     1.404000000     4.026000000
H    -0.447000000     1.932000000     3.712000000
H     0.969000000     1.525000000     3.366000000
O    -2.949000000    -1.876000000    -3.624000000
H    -2.149000000    -1.706000000    -4.120000000
H    -2.643000000    -2.224000000    -2.787000000
O     4.706000000    -0.906000000    -2.620000000
H     4.217000000    -0.785000000    -3.434000000
H     4.054000000    -1.221000000    -1.994000000
O     7.349000000     3.209000000    -0.597000000
H     6.486000000     3.522000000    -0.868000000
H     7.734000000     3.948000000    -0.125000000
O    -4.094000000     2.962000000     1.901000000
H    -4.380000000     2.074000000     1.685000000
H    -4.889000000     3.405000000     2.196000000
O    -1.735000000     2.711000000    -3.739000000
H    -2.314000000     2.093000000    -3.293000000
H    -1.149000000     2.158000000    -4.257000000
O     4.639000000     1.680000000    -5.485000000
H     4.269000000     0.806000000    -5.358000000
H     4.427000000     1.899000000    -6.393000000
O    -3.267000000     1.369000000     6.741000000
H    -2.706000000     2.038000000     7.133000000
H    -2.734000000     0.991000000     6.041000000
O    -3.608000000    -0.377000000    -0.154000000
H    -2.705000000    -0.518000000     0.130000000
H    -3.947000000    -1.257000000    -0.319000000
O     2.835000000    -0.341000000     1.488000000
H     1.979000000    -0.068000000     1.158000000
H     3.138000000     0.401000000     2.011000000
