144
-2787.56320
O    -4.246000000    -1.449000000     4.304000000
H    -3.460000000    -1.319000000     4.834000000
H    -3.926000000    -1.470000000     3.402000000
O    -3.556000000    -2.843000000    -2.566000000
H    -2.746000000    -2.469000000    -2.914000000
H    -4.232000000    -2.567000000    -3.185000000
O    -4.597000000     0.578000000    -4.269000000
H    -4.380000000     0.265000000    -5.147000000
H    -5.133000000    -0.120000000    -3.892000000
O    -1.179000000     0.813000000     8.348000000
H    -0.713000000     1.190000000     7.601000000
H    -0.817000000     1.266000000     9.109000000
O    -7.089000000     1.280000000     0.036000000
H    -6.575000000     1.891000000     0.564000000
H    -7.404000000     0.629000000     0.663000000
O     0.784000000    -4.397000000    -0.808000000
H     0.358000000    -3.908000000    -0.104000000
H     0.921000000    -3.750000000    -1.500000000
O     0.036000000     3.676000000    -1.014000000
H    -0.254000000     2.780000000    -0.844000000
H    -0.727000000     4.105000000    -1.403000000
O     0.364000000    -5.110000000    -3.752000000
H     0.006000000    -4.867000000    -4.606000000
H     0.391000000    -4.289000000    -3.261000000
O     0.234000000     3.364000000    -4.828000000
H     0.436000000     2.469000000    -4.554000000
H    -0.020000000     3.282000000    -5.747000000
O     2.169000000    -6.922000000    -3.929000000
H     1.753000000    -7.779000000    -4.012000000
H     1.454000000    -6.296000000    -4.043000000
O     4.004000000     1.751000000     4.388000000
H     4.059000000     2.189000000     3.538000000
H     4.556000000     2.279000000     4.965000000
O    -3.267000000    -5.061000000     0.152000000
H    -3.202000000    -6.011000000     0.058000000
H    -2.688000000    -4.713000000    -0.526000000
O     2.069000000    -2.631000000     3.092000000
H     2.519000000    -2.286000000     2.321000000
H     1.138000000    -2.561000000     2.878000000
O     6.741000000     0.493000000     2.086000000
H     6.785000000    -0.434000000     2.319000000
H     5.831000000     0.632000000     1.824000000
O    -1.546000000     2.590000000     5.981000000
H    -1.043000000     1.799000000     5.790000000
H    -0.977000000     3.309000000     5.706000000
O     2.120000000     6.006000000     4.138000000
H     1.612000000     5.669000000     3.401000000
H     1.763000000     6.880000000     4.296000000
O     1.736000000    -1.944000000    -5.379000000
H     2.457000000    -2.574000000    -5.370000000
H     1.283000000    -2.087000000    -4.548000000
O    -2.464000000    -1.092000000     2.204000000
H    -2.039000000    -0.295000000     1.889000000
H    -3.035000000    -1.360000000     1.484000000
O     3.720000000    -3.512000000    -5.967000000
H     4.610000000    -3.859000000    -6.022000000
H     3.456000000    -3.385000000    -6.878000000
O     6.135000000    -1.782000000    -2.843000000
H     5.263000000    -2.149000000    -2.698000000
H     6.010000000    -0.835000000    -2.784000000
O    -0.046000000    -4.519000000    -6.303000000
H     0.528000000    -4.898000000    -6.969000000
H    -0.371000000    -3.710000000    -6.698000000
O     4.651000000     3.023000000     1.800000000
H     4.670000000     3.980000000     1.824000000
H     5.193000000     2.792000000     1.046000000
O     1.124000000     6.285000000    -0.682000000
H     0.844000000     5.393000000    -0.889000000
H     0.615000000     6.839000000    -1.274000000
O    -0.333000000     0.689000000    -4.709000000
H    -0.376000000    -0.115000000    -4.191000000
H     0.011000000     0.408000000    -5.557000000
O    -2.433000000    -5.589000000    -2.960000000
H    -1.543000000    -5.477000000    -3.294000000
H    -2.867000000    -4.756000000    -3.150000000
O     1.819000000    -7.007000000    -1.210000000
H     1.795000000    -6.078000000    -0.981000000
H     2.101000000    -7.021000000    -2.125000000
O    -2.826000000     5.674000000     2.818000000
H    -2.537000000     6.265000000     3.514000000
H    -2.041000000     5.521000000     2.293000000
O    -2.427000000    -1.653000000    -5.878000000
H    -3.061000000    -2.349000000    -5.705000000
H    -2.009000000    -1.493000000    -5.032000000
O     4.146000000    -0.599000000     5.665000000
H     3.839000000     0.181000000     5.202000000
H     3.374000000    -0.918000000     6.133000000
O     3.672000000    -3.477000000     0.032000000
H     3.640000000    -3.481000000    -0.925000000
H     4.074000000    -4.314000000     0.262000000
O     5.295000000     0.882000000    -2.476000000
H     4.418000000     1.078000000    -2.808000000
H     5.379000000     1.422000000    -1.690000000
O     0.111000000     5.260000000     2.025000000
H     0.496000000     5.955000000     1.491000000
H     0.256000000     4.461000000     1.519000000
O    -1.948000000     4.307000000    -2.858000000
H    -1.296000000     3.949000000    -3.461000000
H    -2.550000000     3.581000000    -2.696000000
O     0.931000000     1.405000000     6.543000000
H     1.614000000     1.134000000     7.156000000
H     1.399000000     1.594000000     5.730000000
O    -0.740000000    -1.757000000    -7.816000000
H    -1.501000000    -1.646000000    -7.247000000
H    -0.238000000    -0.949000000    -7.706000000
O    -0.474000000    -3.195000000     1.691000000
H    -1.065000000    -2.461000000     1.861000000
H    -0.961000000    -3.967000000     1.978000000
O     0.275000000     4.662000000     5.994000000
H     0.723000000     4.239000000     6.726000000
H     0.925000000     4.674000000     5.291000000
O    -2.435000000     1.376000000    -7.519000000
H    -2.226000000     0.689000000    -6.886000000
H    -3.253000000     1.086000000    -7.924000000
O    -4.314000000    -1.662000000    -0.058000000
H    -4.186000000    -2.362000000    -0.697000000
H    -5.250000000    -1.688000000     0.142000000
O     3.472000000    -3.396000000    -2.610000000
H     2.517000000    -3.441000000    -2.656000000
H     3.772000000    -3.951000000    -3.330000000
O     1.573000000    -5.444000000     1.852000000
H     2.180000000    -4.784000000     1.517000000
H     1.316000000    -5.946000000     1.079000000
O     5.186000000    -2.415000000     3.230000000
H     5.698000000    -2.955000000     3.831000000
H     4.570000000    -1.947000000     3.793000000
O     2.487000000     1.912000000    -2.524000000
H     1.846000000     2.530000000    -2.172000000
H     2.116000000     1.050000000    -2.335000000
O     3.992000000    -0.191000000    -5.917000000
H     3.118000000    -0.578000000    -5.972000000
H     4.550000000    -0.902000000    -5.603000000
O     6.224000000    -2.095000000     0.792000000
H     5.951000000    -2.447000000     1.639000000
H     5.478000000    -2.254000000     0.215000000
O    -3.934000000     3.667000000     4.355000000
H    -3.502000000     4.299000000     3.780000000
H    -3.328000000     3.558000000     5.088000000
O    -3.855000000     2.558000000    -2.262000000
H    -3.995000000     1.895000000    -2.939000000
H    -4.384000000     2.259000000    -1.522000000
O     3.261000000    -4.580000000     4.511000000
H     2.986000000    -3.671000000     4.392000000
H     2.726000000    -5.075000000     3.890000000
