144
-2793.57608
O    -0.890000000     7.144000000    -2.336000000
H    -0.565000000     6.566000000    -3.027000000
H    -0.480000000     6.815000000    -1.536000000
O     0.947000000    -6.203000000    -0.365000000
H     0.054000000    -6.538000000    -0.446000000
H     0.887000000    -5.289000000    -0.643000000
O     3.323000000    -7.916000000     0.004000000
H     2.640000000    -7.260000000    -0.135000000
H     2.951000000    -8.515000000     0.651000000
O     1.343000000     1.401000000    -2.594000000
H     1.115000000     0.601000000    -3.068000000
H     1.287000000     1.157000000    -1.670000000
O     2.350000000    -3.883000000     1.165000000
H     1.702000000    -3.754000000     0.472000000
H     2.052000000    -4.667000000     1.627000000
O    -1.064000000     5.854000000     4.563000000
H    -1.222000000     6.744000000     4.879000000
H    -1.902000000     5.407000000     4.678000000
O     0.920000000    -6.891000000    -3.631000000
H     0.858000000    -6.553000000    -4.524000000
H     1.685000000    -6.452000000    -3.260000000
O     4.238000000     4.455000000    -1.670000000
H     4.704000000     4.752000000    -2.452000000
H     3.433000000     4.062000000    -2.006000000
O     4.113000000    -0.556000000     2.332000000
H     4.514000000     0.278000000     2.088000000
H     3.963000000    -1.002000000     1.498000000
O    -4.888000000    -3.310000000    -3.920000000
H    -4.051000000    -2.964000000    -4.229000000
H    -5.069000000    -4.051000000    -4.498000000
O     5.036000000    -4.306000000     0.670000000
H     5.256000000    -3.529000000     0.156000000
H     4.163000000    -4.122000000     1.019000000
O    -5.311000000     0.306000000    -4.102000000
H    -5.422000000    -0.559000000    -3.706000000
H    -6.190000000     0.554000000    -4.388000000
O    -5.719000000     0.599000000    -1.391000000
H    -5.229000000     0.824000000    -2.182000000
H    -6.442000000     1.225000000    -1.370000000
O     2.707000000     4.032000000     4.271000000
H     3.240000000     4.703000000     4.697000000
H     1.927000000     3.961000000     4.821000000
O     1.538000000     6.781000000    -0.305000000
H     1.488000000     6.226000000     0.474000000
H     2.300000000     7.340000000    -0.152000000
O     0.125000000    -0.704000000    -3.950000000
H     0.260000000    -1.608000000    -3.666000000
H     0.188000000    -0.740000000    -4.904000000
O     5.778000000     2.753000000     4.064000000
H     5.224000000     2.452000000     3.344000000
H     6.227000000     3.524000000     3.715000000
O     0.863000000     4.356000000     6.085000000
H     0.157000000     4.738000000     5.563000000
H     0.984000000     4.969000000     6.810000000
O    -5.732000000     3.387000000     1.290000000
H    -4.824000000     3.245000000     1.560000000
H    -5.896000000     4.311000000     1.479000000
O     1.891000000     5.313000000     2.105000000
H     2.244000000     4.903000000     2.895000000
H     1.021000000     5.619000000     2.362000000
O     4.892000000    -1.681000000    -0.256000000
H     4.063000000    -1.977000000    -0.632000000
H     5.299000000    -1.163000000    -0.951000000
O    -1.519000000     1.507000000    -3.802000000
H    -1.353000000     1.886000000    -2.939000000
H    -1.030000000     0.683000000    -3.799000000
O     2.075000000    -0.046000000     4.639000000
H     2.722000000     0.461000000     4.147000000
H     1.237000000     0.363000000     4.424000000
O    -5.483000000    -3.690000000     1.505000000
H    -6.208000000    -3.344000000     2.026000000
H    -5.176000000    -2.941000000     0.994000000
O    -2.017000000     5.990000000     0.187000000
H    -1.475000000     6.469000000     0.814000000
H    -2.852000000     6.457000000     0.185000000
O     5.752000000     0.288000000    -2.210000000
H     5.588000000     0.177000000    -3.146000000
H     6.127000000     1.165000000    -2.135000000
O     5.903000000     1.353000000     1.107000000
H     6.126000000     1.584000000     0.205000000
H     6.691000000     1.559000000     1.609000000
O    -3.181000000    -0.882000000     2.860000000
H    -3.540000000    -0.883000000     1.973000000
H    -2.381000000    -1.404000000     2.796000000
O     4.607000000     5.237000000     1.253000000
H     3.668000000     5.085000000     1.354000000
H     4.794000000     4.990000000     0.348000000
O    -2.855000000     3.989000000    -4.410000000
H    -3.530000000     4.226000000    -3.775000000
H    -2.522000000     3.145000000    -4.102000000
O     0.188000000    -3.569000000    -4.352000000
H    -0.336000000    -3.449000000    -3.560000000
H     0.114000000    -4.502000000    -4.549000000
O    -4.438000000     1.393000000     3.497000000
H    -4.166000000     0.568000000     3.094000000
H    -3.959000000     2.065000000     3.011000000
O     2.761000000    -3.183000000    -5.019000000
H     3.266000000    -3.937000000    -5.324000000
H     1.847000000    -3.441000000    -5.140000000
O    -2.091000000     3.843000000    -1.343000000
H    -2.020000000     4.711000000    -0.946000000
H    -3.020000000     3.625000000    -1.278000000
O     2.045000000     3.975000000    -3.036000000
H     1.903000000     3.035000000    -2.928000000
H     1.167000000     4.338000000    -3.156000000
O     1.583000000    -2.380000000     3.421000000
H     1.767000000    -2.537000000     2.495000000
H     2.067000000    -1.580000000     3.629000000
O     2.951000000    -3.245000000    -2.230000000
H     2.853000000    -3.260000000    -3.182000000
H     2.076000000    -3.442000000    -1.896000000
O    -2.885000000     3.402000000     2.379000000
H    -2.684000000     4.191000000     1.875000000
H    -2.205000000     3.367000000     3.050000000
O    -1.412000000    -7.418000000    -0.717000000
H    -2.020000000    -7.892000000    -1.283000000
H    -1.972000000    -6.864000000    -0.173000000
O    -2.629000000    -1.889000000    -4.201000000
H    -1.815000000    -1.965000000    -4.698000000
H    -2.391000000    -2.145000000    -3.310000000
O    -3.258000000    -5.953000000     0.576000000
H    -2.549000000    -5.689000000     1.162000000
H    -3.855000000    -5.205000000     0.570000000
O    -1.702000000    -5.349000000    -2.800000000
H    -1.107000000    -6.018000000    -2.461000000
H    -1.387000000    -4.531000000    -2.415000000
O    -3.964000000    -3.479000000    -1.423000000
H    -3.381000000    -4.215000000    -1.610000000
H    -4.513000000    -3.405000000    -2.204000000
O    -0.748000000     0.315000000     4.367000000
H    -0.961000000    -0.616000000     4.434000000
H    -1.274000000     0.629000000     3.632000000
O    -3.001000000     0.829000000    -5.788000000
H    -3.736000000     0.398000000    -5.352000000
H    -2.492000000     1.215000000    -5.075000000
O    -4.407000000    -1.285000000     0.285000000
H    -4.076000000    -1.947000000    -0.323000000
H    -4.926000000    -0.695000000    -0.262000000
O    -1.760000000     2.970000000     5.178000000
H    -0.957000000     2.505000000     5.414000000
H    -2.403000000     2.681000000     5.825000000
O    -2.583000000    -5.038000000    -5.499000000
H    -2.399000000    -5.219000000    -4.577000000
H    -1.729000000    -5.086000000    -5.928000000
