144
-2769.97740
O    -1.890000000     4.301000000    -3.340000000
H    -1.863000000     4.858000000    -2.562000000
H    -1.746000000     3.416000000    -3.006000000
O     2.300000000     5.512000000    -2.502000000
H     1.854000000     5.800000000    -1.705000000
H     2.337000000     6.295000000    -3.052000000
O     6.637000000     0.895000000     2.952000000
H     6.561000000     1.776000000     3.319000000
H     5.818000000     0.762000000     2.475000000
O    -4.643000000     1.370000000     2.477000000
H    -4.134000000     1.245000000     1.675000000
H    -5.539000000     1.143000000     2.230000000
O     1.731000000     1.790000000    -5.557000000
H     2.379000000     1.382000000    -6.132000000
H     2.244000000     2.144000000    -4.831000000
O    -3.920000000     0.740000000     5.600000000
H    -3.202000000     1.317000000     5.858000000
H    -3.950000000     0.807000000     4.645000000
O    -3.496000000    -4.512000000    -5.347000000
H    -4.099000000    -4.970000000    -4.761000000
H    -2.965000000    -3.969000000    -4.766000000
O    -4.024000000     1.067000000    -2.420000000
H    -3.083000000     1.238000000    -2.463000000
H    -4.220000000     1.036000000    -1.484000000
O     1.782000000    -0.320000000     3.362000000
H     0.986000000    -0.456000000     3.874000000
H     1.480000000    -0.284000000     2.454000000
O     4.100000000     0.715000000     1.717000000
H     3.370000000     0.691000000     2.335000000
H     4.200000000     1.642000000     1.500000000
O    -1.897000000    -0.773000000    -3.897000000
H    -2.374000000    -0.309000000    -4.586000000
H    -1.192000000    -1.227000000    -4.358000000
O     4.765000000     0.338000000    -3.464000000
H     4.662000000     0.697000000    -4.345000000
H     4.989000000     1.094000000    -2.922000000
O     0.739000000    -1.695000000    -5.203000000
H     0.399000000    -2.585000000    -5.300000000
H     1.648000000    -1.815000000    -4.931000000
O    -3.173000000     1.461000000     0.238000000
H    -3.128000000     2.409000000     0.118000000
H    -2.270000000     1.200000000     0.422000000
O     4.477000000     3.352000000     1.217000000
H     3.752000000     3.927000000     1.463000000
H     5.264000000     3.849000000     1.441000000
O     2.538000000    -4.666000000     2.152000000
H     1.661000000    -4.454000000     1.833000000
H     2.897000000    -3.826000000     2.440000000
O    -0.739000000    -3.036000000     3.741000000
H    -1.408000000    -2.658000000     4.311000000
H    -0.976000000    -2.737000000     2.863000000
O     0.084000000     6.006000000     1.043000000
H     0.352000000     6.901000000     0.833000000
H     0.260000000     5.917000000     1.980000000
O    -4.512000000     3.613000000     4.275000000
H    -3.586000000     3.383000000     4.194000000
H    -4.945000000     3.110000000     3.585000000
O    -0.534000000     0.202000000     4.620000000
H    -1.041000000     0.896000000     5.041000000
H    -0.794000000    -0.597000000     5.078000000
O    -3.253000000    -2.206000000     4.473000000
H    -3.569000000    -1.904000000     5.324000000
H    -4.046000000    -2.439000000     3.991000000
O    -3.555000000     4.327000000     0.555000000
H    -4.178000000     5.046000000     0.656000000
H    -2.938000000     4.442000000     1.278000000
O    -1.625000000     5.689000000    -0.971000000
H    -0.909000000     5.795000000    -0.345000000
H    -2.330000000     5.288000000    -0.462000000
O    -0.932000000     1.889000000    -2.857000000
H    -0.427000000     1.702000000    -2.065000000
H    -0.812000000     1.114000000    -3.406000000
O    -1.265000000    -8.232000000    -3.189000000
H    -1.405000000    -7.519000000    -2.566000000
H    -0.591000000    -7.901000000    -3.783000000
O    -5.513000000    -4.094000000    -2.375000000
H    -5.680000000    -4.702000000    -3.095000000
H    -4.633000000    -3.758000000    -2.543000000
O     3.208000000    -2.739000000    -1.761000000
H     2.917000000    -1.940000000    -1.322000000
H     2.398000000    -3.175000000    -2.027000000
O    -6.732000000    -4.418000000     3.237000000
H    -6.150000000    -4.928000000     3.801000000
H    -6.141000000    -3.926000000     2.666000000
O     1.738000000    -6.845000000    -0.518000000
H     1.107000000    -6.190000000    -0.220000000
H     1.508000000    -6.999000000    -1.435000000
O    -2.045000000    -6.341000000     5.043000000
H    -2.169000000    -6.284000000     4.095000000
H    -1.167000000    -5.990000000     5.191000000
O     3.162000000     3.103000000    -3.658000000
H     2.836000000     3.903000000    -3.245000000
H     3.613000000     2.638000000    -2.954000000
O    -4.802000000    -3.053000000     2.123000000
H    -5.110000000    -2.254000000     1.694000000
H    -3.871000000    -3.098000000     1.904000000
O    -3.941000000    -5.933000000     0.323000000
H    -3.550000000    -5.063000000     0.407000000
H    -4.824000000    -5.767000000    -0.010000000
O    -1.660000000     4.373000000     3.395000000
H    -0.909000000     3.812000000     3.201000000
H    -1.665000000     4.446000000     4.349000000
O     2.924000000     4.549000000     4.620000000
H     3.763000000     4.973000000     4.804000000
H     2.577000000     5.023000000     3.865000000
O    -0.179000000     0.261000000    -6.621000000
H     0.076000000    -0.506000000    -6.108000000
H     0.300000000     0.987000000    -6.222000000
O     5.045000000     2.368000000    -1.772000000
H     5.944000000     2.053000000    -1.676000000
H     4.838000000     2.763000000    -0.925000000
O     5.974000000    -0.688000000     0.295000000
H     5.277000000    -0.215000000     0.750000000
H     6.753000000    -0.148000000     0.423000000
O     4.525000000     2.095000000     5.297000000
H     4.154000000     2.830000000     4.808000000
H     3.829000000     1.834000000     5.900000000
O     2.600000000     5.256000000     1.863000000
H     3.022000000     6.037000000     1.503000000
H     1.952000000     5.009000000     1.204000000
O     0.964000000    -4.301000000    -2.189000000
H     0.634000000    -4.596000000    -3.038000000
H     0.194000000    -3.947000000    -1.743000000
O    -2.763000000    -3.208000000    -2.925000000
H    -2.362000000    -2.477000000    -3.396000000
H    -2.186000000    -3.354000000    -2.175000000
O    -0.410000000    -4.291000000    -5.271000000
H    -0.633000000    -5.204000000    -5.452000000
H     0.507000000    -4.212000000    -5.536000000
O     0.012000000    -5.085000000     0.952000000
H    -0.245000000    -5.946000000     1.283000000
H    -0.771000000    -4.544000000     1.061000000
O     0.611000000     2.862000000     3.959000000
H     1.240000000     3.224000000     4.583000000
H     0.803000000     1.925000000     3.941000000
O     4.116000000    -2.265000000    -4.892000000
H     3.798000000    -2.290000000    -3.990000000
H     3.561000000    -2.889000000    -5.359000000
O    -1.891000000    -6.231000000    -1.331000000
H    -1.483000000    -5.418000000    -1.033000000
H    -2.805000000    -6.155000000    -1.055000000
O    -1.619000000    -7.161000000     1.643000000
H    -1.786000000    -8.036000000     1.993000000
H    -2.258000000    -7.059000000     0.938000000
