144
-2821.39404
O     0.126000000     7.690000000    -0.943000000
H    -0.389000000     8.494000000    -0.879000000
H     0.938000000     7.888000000    -0.476000000
O     4.499000000    -4.504000000    -0.758000000
H     4.743000000    -4.625000000    -1.675000000
H     3.565000000    -4.712000000    -0.729000000
O    -6.225000000     4.261000000     1.246000000
H    -5.825000000     3.959000000     0.431000000
H    -6.465000000     3.457000000     1.707000000
O    -2.856000000    -2.216000000     2.347000000
H    -2.086000000    -1.658000000     2.452000000
H    -2.851000000    -2.779000000     3.122000000
O    -1.519000000     3.071000000    -4.799000000
H    -1.033000000     3.895000000    -4.826000000
H    -1.018000000     2.516000000    -4.202000000
O    -1.956000000    -2.557000000    -6.516000000
H    -1.343000000    -2.681000000    -5.791000000
H    -2.187000000    -1.629000000    -6.478000000
O     2.733000000    -1.145000000     4.874000000
H     3.242000000    -0.694000000     5.547000000
H     1.850000000    -0.786000000     4.961000000
O     5.184000000     0.775000000     0.976000000
H     5.216000000     0.016000000     1.558000000
H     5.851000000     1.369000000     1.320000000
O    -0.338000000     0.396000000    -3.609000000
H     0.470000000     0.430000000    -3.097000000
H    -0.987000000     0.032000000    -3.006000000
O    -3.473000000    -0.020000000    -2.742000000
H    -3.742000000    -0.294000000    -3.619000000
H    -4.291000000     0.037000000    -2.248000000
O     3.028000000     5.490000000     0.366000000
H     3.061000000     4.554000000     0.170000000
H     3.333000000     5.556000000     1.271000000
O     4.469000000    -4.333000000     2.672000000
H     3.592000000    -4.461000000     2.312000000
H     4.682000000    -5.169000000     3.087000000
O    -2.819000000    -5.399000000    -4.478000000
H    -2.621000000    -4.470000000    -4.359000000
H    -2.602000000    -5.800000000    -3.637000000
O    -4.154000000     4.412000000     4.147000000
H    -3.450000000     4.972000000     3.818000000
H    -4.853000000     5.022000000     4.386000000
O     1.898000000    -3.696000000     4.614000000
H     1.969000000    -3.901000000     3.681000000
H     2.240000000    -2.806000000     4.690000000
O     0.727000000    -5.771000000    -2.244000000
H    -0.200000000    -5.544000000    -2.314000000
H     1.080000000    -5.145000000    -1.612000000
O     0.682000000    -6.906000000     1.628000000
H     0.579000000    -6.879000000     2.580000000
H    -0.165000000    -6.621000000     1.287000000
O    -3.008000000     3.526000000    -0.880000000
H    -3.863000000     3.129000000    -0.715000000
H    -2.482000000     2.816000000    -1.247000000
O     1.636000000     3.159000000    -3.432000000
H     1.084000000     3.940000000    -3.405000000
H     2.531000000     3.496000000    -3.395000000
O    -5.782000000    -3.476000000    -1.207000000
H    -5.077000000    -3.201000000    -1.794000000
H    -6.514000000    -3.678000000    -1.791000000
O     2.554000000    -2.381000000    -4.135000000
H     2.388000000    -1.600000000    -3.608000000
H     3.044000000    -2.060000000    -4.892000000
O    -4.569000000     0.474000000     1.552000000
H    -4.024000000    -0.259000000     1.265000000
H    -5.307000000     0.062000000     2.003000000
O     1.163000000     1.566000000     3.968000000
H     2.075000000     1.843000000     4.050000000
H     0.656000000     2.369000000     4.086000000
O    -0.875000000    -0.371000000     3.016000000
H    -0.562000000    -0.119000000     2.147000000
H    -0.353000000     0.158000000     3.620000000
O     4.987000000     0.351000000    -1.845000000
H     5.914000000     0.274000000    -2.073000000
H     4.955000000     0.157000000    -0.908000000
O    -4.147000000    -4.176000000     1.057000000
H    -4.607000000    -3.893000000     0.267000000
H    -3.723000000    -3.383000000     1.384000000
O    -1.664000000    -5.326000000     0.085000000
H    -1.265000000    -4.697000000    -0.516000000
H    -2.359000000    -4.834000000     0.521000000
O     6.811000000    -1.928000000     2.910000000
H     5.860000000    -1.828000000     2.959000000
H     6.941000000    -2.755000000     2.446000000
O    -0.017000000    -3.443000000    -4.371000000
H     0.933000000    -3.506000000    -4.460000000
H    -0.157000000    -3.208000000    -3.453000000
O    -2.486000000     5.754000000     2.603000000
H    -2.197000000     5.438000000     1.747000000
H    -2.421000000     6.707000000     2.540000000
O    -0.926000000     3.478000000     4.727000000
H    -1.072000000     3.292000000     5.654000000
H    -1.795000000     3.417000000     4.331000000
O     2.873000000     0.804000000    -3.804000000
H     3.708000000     0.986000000    -3.374000000
H     2.355000000     1.598000000    -3.670000000
O     3.801000000     5.435000000     3.149000000
H     4.706000000     5.686000000     3.336000000
H     3.718000000     4.552000000     3.511000000
O     3.858000000     2.997000000    -0.228000000
H     3.966000000     2.879000000    -1.171000000
H     4.025000000     2.131000000     0.143000000
O     4.297000000    -1.612000000     2.554000000
H     4.109000000    -2.544000000     2.443000000
H     3.496000000    -1.249000000     2.933000000
O    -5.393000000     2.244000000    -0.295000000
H    -5.111000000     1.639000000     0.391000000
H    -5.838000000     1.689000000    -0.936000000
O     2.849000000     3.399000000     5.029000000
H     2.346000000     3.545000000     5.831000000
H     3.707000000     3.105000000     5.336000000
O     0.233000000     5.922000000     3.706000000
H     0.708000000     5.390000000     4.345000000
H    -0.576000000     5.437000000     3.545000000
O    -6.254000000     0.321000000    -1.952000000
H    -6.846000000    -0.425000000    -2.041000000
H    -6.427000000     0.858000000    -2.726000000
O     3.651000000    -5.100000000    -3.443000000
H     3.629000000    -4.172000000    -3.676000000
H     2.806000000    -5.262000000    -3.025000000
O    -3.318000000    -3.248000000    -2.156000000
H    -2.439000000    -3.582000000    -1.980000000
H    -3.174000000    -2.450000000    -2.664000000
O    -2.641000000     0.605000000     4.983000000
H    -3.401000000     1.155000000     5.174000000
H    -2.728000000     0.390000000     4.055000000
O     1.286000000     5.413000000    -1.796000000
H     1.952000000     5.371000000    -1.110000000
H     0.829000000     6.239000000    -1.637000000
O     6.180000000    -3.085000000    -2.936000000
H     5.644000000    -2.341000000    -2.661000000
H     7.078000000    -2.754000000    -2.917000000
O     2.122000000    -4.468000000     1.707000000
H     2.171000000    -3.970000000     0.891000000
H     1.612000000    -5.247000000     1.483000000
O    -2.223000000     6.242000000    -0.299000000
H    -1.545000000     6.555000000    -0.897000000
H    -2.152000000     5.289000000    -0.334000000
O     6.138000000     4.801000000     0.222000000
H     6.030000000     4.973000000    -0.713000000
H     5.392000000     4.247000000     0.451000000
O    -2.672000000    -6.794000000    -2.007000000
H    -3.619000000    -6.731000000    -1.876000000
H    -2.296000000    -6.451000000    -1.196000000
