144
-2814.83854
O     1.013000000     6.178000000    -0.343000000
H     0.439000000     6.093000000     0.418000000
H     1.383000000     7.058000000    -0.267000000
O     2.719000000    -3.205000000    -2.890000000
H     2.669000000    -2.531000000    -3.568000000
H     1.806000000    -3.406000000    -2.685000000
O     2.338000000     2.563000000    -3.472000000
H     3.193000000     2.744000000    -3.863000000
H     2.243000000     3.223000000    -2.786000000
O    -5.389000000    -2.049000000    -4.090000000
H    -5.829000000    -2.836000000    -3.768000000
H    -5.944000000    -1.742000000    -4.807000000
O    -4.646000000     1.920000000    -2.620000000
H    -4.250000000     1.084000000    -2.375000000
H    -4.651000000     1.912000000    -3.577000000
O     2.312000000    -1.945000000     1.189000000
H     1.628000000    -1.510000000     0.680000000
H     3.130000000    -1.571000000     0.860000000
O    -1.489000000    -0.269000000    -5.193000000
H    -0.754000000     0.272000000    -5.483000000
H    -1.876000000     0.223000000    -4.469000000
O    -4.569000000     1.191000000     0.777000000
H    -5.061000000     0.757000000     0.080000000
H    -3.727000000     1.408000000     0.377000000
O     4.574000000     3.928000000     0.462000000
H     5.273000000     3.276000000     0.519000000
H     4.902000000     4.675000000     0.962000000
O     0.466000000    -6.082000000    -2.220000000
H     0.542000000    -6.385000000    -3.125000000
H     0.354000000    -5.134000000    -2.294000000
O    -4.474000000    -6.792000000     0.086000000
H    -4.124000000    -6.587000000    -0.781000000
H    -4.042000000    -6.170000000     0.671000000
O     0.092000000    -0.428000000     4.991000000
H     0.246000000    -0.217000000     5.912000000
H    -0.768000000    -0.052000000     4.800000000
O    -4.757000000     1.011000000     4.123000000
H    -5.381000000     1.220000000     3.427000000
H    -5.195000000     0.336000000     4.641000000
O     1.053000000    -2.644000000     3.529000000
H     1.361000000    -2.187000000     2.747000000
H     0.605000000    -1.970000000     4.040000000
O    -1.386000000     2.919000000    -1.474000000
H    -1.647000000     2.525000000    -2.307000000
H    -0.471000000     2.660000000    -1.363000000
O    -3.445000000     4.056000000     0.133000000
H    -2.689000000     3.610000000    -0.249000000
H    -3.867000000     3.390000000     0.676000000
O     2.760000000     4.335000000    -1.510000000
H     3.487000000     4.160000000    -0.913000000
H     2.126000000     4.818000000    -0.980000000
O     2.358000000     0.841000000     3.953000000
H     2.816000000     0.167000000     4.454000000
H     1.451000000     0.536000000     3.912000000
O     3.062000000    -1.366000000    -4.822000000
H     3.376000000    -0.970000000    -4.009000000
H     2.833000000    -0.621000000    -5.378000000
O    -2.520000000     5.643000000     3.718000000
H    -2.862000000     4.831000000     4.093000000
H    -3.287000000     6.210000000     3.636000000
O    -5.353000000    -3.925000000     1.807000000
H    -4.458000000    -4.233000000     1.668000000
H    -5.524000000    -3.342000000     1.068000000
O     4.034000000     1.278000000     1.632000000
H     4.856000000     1.578000000     2.021000000
H     3.439000000     1.180000000     2.375000000
O     0.013000000    -5.123000000     0.635000000
H    -0.469000000    -5.185000000    -0.190000000
H     0.870000000    -4.776000000     0.387000000
O     4.131000000    -0.365000000    -2.655000000
H     4.090000000     0.573000000    -2.470000000
H     4.314000000    -0.768000000    -1.806000000
O    -2.628000000    -4.435000000     0.880000000
H    -2.429000000    -3.875000000     0.130000000
H    -1.792000000    -4.531000000     1.336000000
O    -2.894000000    -5.484000000    -2.143000000
H    -2.884000000    -5.702000000    -3.075000000
H    -2.715000000    -4.544000000    -2.116000000
O    -0.561000000     6.666000000     1.710000000
H    -0.427000000     7.479000000     2.197000000
H    -1.312000000     6.253000000     2.136000000
O     1.268000000    -5.110000000    -4.932000000
H     0.801000000    -4.276000000    -4.878000000
H     1.904000000    -4.983000000    -5.636000000
O     0.190000000     3.819000000     4.742000000
H    -0.359000000     3.691000000     3.968000000
H     1.079000000     3.637000000     4.437000000
O     0.769000000     1.438000000    -5.359000000
H     1.273000000     1.700000000    -4.588000000
H     1.394000000     0.955000000    -5.900000000
O     5.008000000     2.306000000    -1.927000000
H     4.444000000     3.072000000    -1.817000000
H     5.641000000     2.371000000    -1.212000000
O     2.683000000    -7.187000000    -3.959000000
H     2.355000000    -6.324000000    -4.211000000
H     3.578000000    -7.025000000    -3.662000000
O    -0.501000000     6.407000000     5.609000000
H    -0.334000000     5.526000000     5.274000000
H    -1.328000000     6.666000000     5.202000000
O     4.625000000    -1.003000000     0.160000000
H     4.438000000    -0.088000000     0.368000000
H     5.577000000    -1.074000000     0.227000000
O     4.728000000    -5.707000000    -2.279000000
H     4.322000000    -4.844000000    -2.193000000
H     5.622000000    -5.584000000    -1.962000000
O    -1.014000000    -5.112000000     3.479000000
H    -0.495000000    -5.206000000     2.681000000
H    -1.409000000    -5.974000000     3.611000000
O     2.917000000     3.489000000     3.971000000
H     2.619000000     2.580000000     3.975000000
H     3.858000000     3.434000000     4.137000000
O     2.207000000     6.037000000     2.434000000
H     1.311000000     5.708000000     2.366000000
H     2.749000000     5.249000000     2.476000000
O     4.127000000    -4.439000000     0.858000000
H     3.443000000    -3.892000000     0.472000000
H     3.717000000    -4.826000000     1.631000000
O    -6.157000000    -0.292000000    -0.874000000
H    -6.662000000    -1.099000000    -0.776000000
H    -5.431000000    -0.532000000    -1.450000000
O    -0.859000000    -2.897000000    -4.874000000
H    -0.986000000    -1.949000000    -4.919000000
H    -0.523000000    -3.052000000    -3.991000000
O    -3.851000000    -0.889000000    -2.030000000
H    -3.236000000    -1.580000000    -1.784000000
H    -4.264000000    -1.211000000    -2.831000000
O    -3.424000000    -4.637000000    -4.819000000
H    -4.278000000    -4.210000000    -4.752000000
H    -2.796000000    -3.915000000    -4.847000000
O    -2.370000000    -2.805000000     4.985000000
H    -2.953000000    -3.514000000     4.714000000
H    -1.725000000    -2.743000000     4.281000000
O    -2.106000000     1.258000000     4.262000000
H    -3.046000000     1.199000000     4.088000000
H    -2.048000000     1.645000000     5.136000000
O    -0.855000000     5.995000000    -2.669000000
H     0.051000000     6.291000000    -2.757000000
H    -0.841000000     5.399000000    -1.921000000
O     5.415000000     1.641000000     4.224000000
H     4.967000000     1.397000000     5.034000000
H     5.757000000     0.816000000     3.881000000
O    -1.402000000    -7.854000000    -1.384000000
H    -0.687000000    -7.481000000    -1.900000000
H    -1.939000000    -7.100000000    -1.140000000
