144
-2816.05386
O    -1.099000000     6.984000000     0.605000000
H    -1.891000000     7.057000000     1.138000000
H    -0.407000000     6.772000000     1.231000000
O     2.977000000    -3.717000000    -1.813000000
H     3.153000000    -3.066000000    -2.493000000
H     2.030000000    -3.849000000    -1.848000000
O    -3.106000000    -2.888000000     3.860000000
H    -2.320000000    -3.435000000     3.862000000
H    -3.575000000    -3.140000000     4.656000000
O     0.257000000     3.027000000    -4.492000000
H     0.461000000     2.112000000    -4.684000000
H     0.847000000     3.260000000    -3.775000000
O    -2.399000000    -1.241000000    -6.106000000
H    -2.037000000    -1.002000000    -5.252000000
H    -2.463000000    -0.411000000    -6.579000000
O     0.021000000    -1.860000000     3.068000000
H    -0.678000000    -1.234000000     2.877000000
H     0.764000000    -1.317000000     3.330000000
O     3.559000000    -6.772000000    -1.442000000
H     3.091000000    -5.978000000    -1.183000000
H     4.450000000    -6.476000000    -1.626000000
O    -0.796000000    -0.450000000    -3.678000000
H    -0.002000000     0.079000000    -3.603000000
H    -1.201000000    -0.400000000    -2.812000000
O    -3.576000000     1.663000000    -2.385000000
H    -4.295000000     1.720000000    -1.755000000
H    -3.336000000     0.737000000    -2.391000000
O     4.393000000     1.826000000     1.828000000
H     5.161000000     2.394000000     1.781000000
H     3.648000000     2.428000000     1.807000000
O     1.689000000    -7.048000000    -4.855000000
H     1.890000000    -6.506000000    -5.618000000
H     0.958000000    -6.600000000    -4.429000000
O    -2.765000000     2.377000000     2.778000000
H    -2.068000000     2.674000000     3.363000000
H    -3.505000000     2.950000000     2.977000000
O    -5.507000000    -3.273000000    -0.774000000
H    -4.779000000    -3.769000000    -1.150000000
H    -5.205000000    -3.030000000     0.101000000
O    -0.051000000     0.920000000     5.624000000
H    -0.616000000     1.065000000     6.382000000
H    -0.607000000     0.460000000     4.995000000
O    -0.277000000    -6.161000000    -2.355000000
H    -1.211000000    -6.361000000    -2.402000000
H    -0.242000000    -5.241000000    -2.091000000
O    -1.971000000     3.593000000    -1.238000000
H    -1.019000000     3.490000000    -1.228000000
H    -2.285000000     2.866000000    -1.775000000
O     2.226000000     3.767000000    -2.892000000
H     2.579000000     4.540000000    -2.453000000
H     2.483000000     3.873000000    -3.808000000
O    -2.230000000    -6.205000000    -5.102000000
H    -1.961000000    -5.438000000    -5.607000000
H    -1.654000000    -6.202000000    -4.337000000
O     4.668000000    -2.062000000    -3.785000000
H     4.679000000    -1.231000000    -3.311000000
H     4.484000000    -1.819000000    -4.692000000
O    -4.888000000    -2.210000000     1.605000000
H    -4.770000000    -2.674000000     2.434000000
H    -4.283000000    -1.470000000     1.657000000
O     4.021000000    -0.571000000     3.322000000
H     4.255000000    -0.365000000     4.227000000
H     3.993000000     0.279000000     2.882000000
O    -0.901000000    -4.319000000     2.462000000
H    -1.547000000    -4.353000000     1.756000000
H    -0.372000000    -3.546000000     2.266000000
O     4.204000000     0.036000000    -2.145000000
H     4.578000000     0.915000000    -2.095000000
H     4.306000000    -0.318000000    -1.261000000
O     1.578000000     7.843000000    -1.720000000
H     2.337000000     7.364000000    -1.389000000
H     0.868000000     7.201000000    -1.716000000
O    -2.461000000    -5.315000000     0.274000000
H    -2.650000000    -4.691000000    -0.427000000
H    -3.252000000    -5.315000000     0.813000000
O     7.135000000     1.237000000     1.970000000
H     6.258000000     0.890000000     1.808000000
H     7.714000000     0.480000000     1.874000000
O    -3.860000000    -4.431000000    -2.509000000
H    -4.246000000    -4.573000000    -3.374000000
H    -3.050000000    -3.951000000    -2.684000000
O    -0.953000000    -4.100000000    -6.202000000
H    -1.030000000    -3.562000000    -5.414000000
H    -0.071000000    -3.920000000    -6.528000000
O     3.897000000    -5.283000000     2.095000000
H     3.031000000    -4.917000000     1.915000000
H     3.719000000    -6.136000000     2.490000000
O    -1.004000000     4.548000000     4.753000000
H    -1.805000000     4.675000000     5.261000000
H    -0.351000000     4.276000000     5.398000000
O     1.587000000     0.833000000    -3.185000000
H     2.180000000     0.277000000    -2.680000000
H     1.810000000     1.725000000    -2.920000000
O     4.693000000     2.624000000    -1.693000000
H     3.797000000     2.951000000    -1.613000000
H     5.158000000     3.013000000    -0.952000000
O     4.476000000    -1.243000000     0.456000000
H     4.031000000    -1.095000000     1.290000000
H     5.009000000    -2.024000000     0.604000000
O    -4.706000000     0.466000000     2.530000000
H    -4.043000000     1.148000000     2.419000000
H    -5.356000000     0.653000000     1.853000000
O    -6.602000000     1.305000000     0.730000000
H    -6.258000000     1.235000000    -0.161000000
H    -7.247000000     2.010000000     0.683000000
O     1.058000000     5.446000000     2.695000000
H     0.335000000     5.061000000     3.190000000
H     1.600000000     4.699000000     2.442000000
O     5.009000000    -3.963000000     0.117000000
H     4.308000000    -3.885000000    -0.531000000
H     4.674000000    -4.591000000     0.757000000
O    -5.732000000     0.285000000    -1.680000000
H    -6.319000000     0.399000000    -2.428000000
H    -5.045000000    -0.300000000    -2.002000000
O     0.164000000    -3.132000000    -4.088000000
H     0.039000000    -2.183000000    -4.107000000
H     0.039000000    -3.371000000    -3.169000000
O    -3.657000000    -1.178000000    -2.465000000
H    -3.095000000    -1.707000000    -1.900000000
H    -4.040000000    -1.806000000    -3.077000000
O    -7.505000000    -1.353000000     1.086000000
H    -6.843000000    -2.030000000     1.229000000
H    -7.006000000    -0.587000000     0.803000000
O    -2.109000000    -0.251000000     3.754000000
H    -2.671000000     0.403000000     3.340000000
H    -2.589000000    -1.074000000     3.658000000
O     1.078000000    -7.819000000     1.787000000
H     1.862000000    -8.341000000     1.615000000
H     1.242000000    -6.986000000     1.344000000
O    -0.889000000     6.365000000    -2.022000000
H    -0.985000000     6.552000000    -1.088000000
H    -1.758000000     6.072000000    -2.299000000
O     1.040000000    -5.231000000     0.589000000
H     0.773000000    -4.785000000    -0.214000000
H     0.227000000    -5.345000000     1.082000000
O    -3.840000000     5.002000000     0.161000000
H    -3.354000000     5.490000000     0.826000000
H    -3.189000000     4.422000000    -0.234000000
O     3.330000000     4.265000000     2.276000000
H     3.627000000     4.629000000     1.442000000
H     3.458000000     4.975000000     2.906000000
O    -2.536000000    -7.551000000    -1.824000000
H    -3.172000000    -6.870000000    -1.605000000
H    -2.139000000    -7.786000000    -0.985000000
