144
-2834.32073
O     3.149000000    -3.905000000    -0.228000000
H     3.260000000    -4.851000000    -0.133000000
H     2.355000000    -3.809000000    -0.754000000
O    -2.862000000     4.960000000     1.529000000
H    -3.638000000     5.392000000     1.886000000
H    -3.210000000     4.285000000     0.947000000
O    -1.338000000    -3.770000000     2.338000000
H    -1.646000000    -4.597000000     2.708000000
H    -0.670000000    -4.025000000     1.702000000
O     0.111000000    -0.410000000    -5.429000000
H     0.491000000     0.133000000    -4.738000000
H     0.320000000     0.053000000    -6.240000000
O     2.415000000    -3.340000000    -3.613000000
H     1.766000000    -3.289000000    -2.912000000
H     1.908000000    -3.236000000    -4.418000000
O     2.591000000    -0.306000000     4.064000000
H     2.994000000     0.145000000     4.806000000
H     3.325000000    -0.723000000     3.612000000
O    -4.918000000    -0.223000000    -1.780000000
H    -4.470000000    -0.987000000    -2.143000000
H    -4.470000000     0.526000000    -2.173000000
O     5.139000000     1.135000000     0.251000000
H     5.035000000     0.184000000     0.247000000
H     5.180000000     1.367000000     1.179000000
O    -3.605000000    -2.510000000    -6.390000000
H    -3.669000000    -2.027000000    -7.214000000
H    -3.311000000    -1.859000000    -5.753000000
O     1.129000000     1.604000000    -3.649000000
H     1.738000000     1.953000000    -4.300000000
H     1.692000000     1.252000000    -2.959000000
O    -2.824000000    -0.239000000    -4.890000000
H    -3.429000000     0.284000000    -5.415000000
H    -1.958000000     0.110000000    -5.104000000
O     3.212000000     3.704000000    -2.470000000
H     3.046000000     4.061000000    -1.597000000
H     3.568000000     2.831000000    -2.307000000
O     4.420000000     4.144000000     0.993000000
H     4.822000000     3.819000000     0.187000000
H     4.979000000     3.805000000     1.692000000
O    -3.137000000    -5.103000000    -4.635000000
H    -3.400000000    -4.254000000    -4.990000000
H    -2.986000000    -4.936000000    -3.704000000
O    -0.312000000     4.837000000     5.383000000
H    -0.312000000     4.338000000     6.200000000
H    -0.658000000     4.228000000     4.731000000
O     1.595000000    -5.688000000     3.215000000
H     1.238000000    -5.388000000     2.380000000
H     1.004000000    -5.322000000     3.874000000
O     0.754000000    -5.990000000    -2.369000000
H     0.029000000    -6.239000000    -2.943000000
H     0.720000000    -5.034000000    -2.341000000
O    -3.546000000     2.399000000    -2.609000000
H    -2.738000000     2.783000000    -2.948000000
H    -3.501000000     2.541000000    -1.663000000
O    -3.802000000     2.795000000     0.042000000
H    -3.552000000     1.982000000     0.482000000
H    -4.756000000     2.746000000    -0.025000000
O    -5.409000000    -4.198000000    -2.545000000
H    -4.678000000    -3.580000000    -2.551000000
H    -5.728000000    -4.199000000    -3.448000000
O    -2.265000000     6.771000000    -0.780000000
H    -1.448000000     6.399000000    -1.112000000
H    -2.328000000     6.446000000     0.118000000
O     5.568000000     2.356000000     2.619000000
H     6.452000000     2.121000000     2.337000000
H     5.701000000     2.923000000     3.378000000
O    -3.034000000    -2.906000000     0.189000000
H    -2.945000000    -2.856000000    -0.763000000
H    -2.286000000    -3.433000000     0.472000000
O     0.694000000     1.752000000     4.871000000
H     0.886000000     0.821000000     4.762000000
H    -0.005000000     1.928000000     4.242000000
O    -0.695000000    -1.421000000     3.359000000
H    -0.983000000    -2.169000000     2.836000000
H     0.148000000    -1.692000000     3.722000000
O     2.309000000     5.512000000    -0.091000000
H     1.919000000     6.162000000     0.493000000
H     2.876000000     4.989000000     0.477000000
O     0.047000000     2.978000000     7.327000000
H    -0.882000000     2.810000000     7.489000000
H     0.229000000     2.534000000     6.499000000
O    -2.513000000    -5.410000000    -2.005000000
H    -2.116000000    -4.584000000    -1.729000000
H    -2.636000000    -5.901000000    -1.193000000
O    -0.359000000    -3.128000000    -4.682000000
H    -0.341000000    -2.222000000    -4.991000000
H    -0.646000000    -3.065000000    -3.771000000
O    -0.778000000    -6.767000000    -4.705000000
H    -1.142000000    -5.904000000    -4.903000000
H    -1.207000000    -7.356000000    -5.326000000
O     3.604000000    -6.516000000     0.027000000
H     3.631000000    -6.513000000    -0.929000000
H     2.982000000    -7.211000000     0.247000000
O    -1.636000000     3.390000000     3.591000000
H    -2.074000000     2.541000000     3.541000000
H    -2.220000000     3.990000000     3.126000000
O     4.428000000    -1.630000000    -2.369000000
H     3.704000000    -2.189000000    -2.652000000
H     4.393000000    -1.657000000    -1.413000000
O     3.190000000     0.906000000    -2.035000000
H     3.564000000     0.072000000    -2.319000000
H     3.359000000     0.936000000    -1.094000000
O     5.213000000    -1.230000000     2.975000000
H     5.919000000    -0.799000000     3.457000000
H     5.121000000    -2.084000000     3.398000000
O     4.626000000    -5.234000000    -2.851000000
H     4.902000000    -5.848000000    -3.530000000
H     3.998000000    -4.659000000    -3.288000000
O    -2.845000000     0.705000000     1.800000000
H    -2.277000000     0.052000000     1.391000000
H    -2.895000000     0.439000000     2.718000000
O     3.154000000     3.505000000     3.580000000
H     3.303000000     2.774000000     4.180000000
H     3.126000000     3.101000000     2.713000000
O     1.444000000     5.524000000     3.195000000
H     2.166000000     4.915000000     3.351000000
H     0.726000000     5.185000000     3.730000000
O     4.630000000    -1.573000000     0.501000000
H     4.629000000    -1.353000000     1.432000000
H     4.321000000    -2.479000000     0.468000000
O    -5.503000000    -1.197000000     0.741000000
H    -4.736000000    -1.736000000     0.938000000
H    -5.224000000    -0.640000000     0.014000000
O    -3.505000000    -2.216000000    -2.825000000
H    -2.609000000    -2.434000000    -2.570000000
H    -3.405000000    -1.549000000    -3.505000000
O    -2.365000000     0.209000000     4.732000000
H    -1.647000000    -0.278000000     4.327000000
H    -2.979000000    -0.465000000     5.021000000
O     2.156000000    -7.023000000    -4.499000000
H     1.476000000    -6.678000000    -5.078000000
H     1.845000000    -6.820000000    -3.617000000
O    -0.403000000     6.213000000     1.340000000
H     0.294000000     5.901000000     1.917000000
H    -1.162000000     5.676000000     1.568000000
O    -0.762000000     3.516000000    -3.580000000
H    -0.154000000     2.776000000    -3.589000000
H    -0.464000000     4.062000000    -2.853000000
O     0.524000000    -5.357000000     0.703000000
H     0.686000000    -5.036000000    -0.184000000
H    -0.055000000    -6.110000000     0.583000000
O     0.441000000     5.656000000    -1.959000000
H     0.997000000     5.503000000    -1.195000000
H     0.086000000     6.534000000    -1.825000000
