144
-2817.44546
O     1.539000000     2.675000000    -4.904000000
H     1.633000000     1.827000000    -5.336000000
H     0.811000000     2.555000000    -4.295000000
O     4.348000000    -2.358000000    -0.650000000
H     5.202000000    -2.691000000    -0.926000000
H     3.915000000    -3.112000000    -0.250000000
O    -2.864000000     3.592000000     1.671000000
H    -2.377000000     3.538000000     2.493000000
H    -3.755000000     3.820000000     1.936000000
O    -1.447000000    -1.283000000     4.738000000
H    -1.560000000    -1.813000000     3.949000000
H    -0.866000000    -1.803000000     5.294000000
O     0.126000000    -4.379000000    -5.324000000
H    -0.042000000    -3.990000000    -4.466000000
H    -0.701000000    -4.799000000    -5.562000000
O     1.574000000    -1.566000000     4.508000000
H     2.185000000    -1.187000000     3.876000000
H     1.152000000    -2.281000000     4.033000000
O     4.595000000    -3.258000000    -3.320000000
H     3.829000000    -3.831000000    -3.286000000
H     4.405000000    -2.567000000    -2.685000000
O    -1.290000000     1.460000000     5.344000000
H    -0.472000000     1.723000000     5.767000000
H    -1.213000000     0.512000000     5.241000000
O    -1.170000000     3.009000000    -3.338000000
H    -1.428000000     3.867000000    -3.677000000
H    -1.840000000     2.410000000    -3.668000000
O    -3.507000000     1.730000000    -4.295000000
H    -4.123000000     2.388000000    -3.973000000
H    -4.058000000     1.082000000    -4.736000000
O     4.994000000     1.447000000    -1.766000000
H     5.874000000     1.818000000    -1.831000000
H     4.739000000     1.276000000    -2.673000000
O     2.631000000    -4.851000000    -0.602000000
H     2.341000000    -4.469000000    -1.431000000
H     2.915000000    -5.736000000    -0.833000000
O     0.556000000     5.494000000     3.697000000
H     1.448000000     5.163000000     3.803000000
H     0.223000000     5.040000000     2.923000000
O    -5.285000000     3.401000000     2.927000000
H    -5.140000000     2.666000000     3.523000000
H    -5.726000000     3.012000000     2.171000000
O    -3.258000000    -2.091000000    -4.780000000
H    -2.886000000    -1.792000000    -3.951000000
H    -3.591000000    -2.968000000    -4.590000000
O    -1.049000000    -6.604000000    -0.378000000
H    -0.406000000    -7.047000000    -0.931000000
H    -1.317000000    -5.839000000    -0.888000000
O    -1.812000000    -4.478000000    -1.828000000
H    -1.793000000    -3.532000000    -1.973000000
H    -1.565000000    -4.855000000    -2.672000000
O    -6.347000000     2.695000000     0.649000000
H    -5.999000000     1.804000000     0.631000000
H    -6.775000000     2.802000000    -0.201000000
O     4.777000000     2.574000000     3.100000000
H     4.894000000     2.155000000     2.247000000
H     4.201000000     1.980000000     3.582000000
O    -7.221000000    -1.453000000    -3.546000000
H    -6.366000000    -1.373000000    -3.122000000
H    -7.647000000    -2.178000000    -3.089000000
O     1.462000000     3.307000000     6.290000000
H     1.273000000     4.240000000     6.190000000
H     2.306000000     3.281000000     6.742000000
O     1.761000000     0.231000000     6.543000000
H     1.518000000    -0.367000000     5.836000000
H     2.356000000     0.858000000     6.132000000
O    -0.014000000     4.637000000     1.151000000
H    -0.051000000     4.057000000     0.391000000
H    -0.927000000     4.876000000     1.315000000
O     3.644000000    -1.027000000     2.610000000
H     4.057000000    -0.675000000     1.821000000
H     3.736000000    -1.976000000     2.525000000
O     1.403000000    -0.498000000    -4.862000000
H     0.710000000    -0.557000000    -5.520000000
H     1.052000000    -0.964000000    -4.103000000
O    -3.686000000     1.204000000     3.930000000
H    -2.975000000     1.104000000     4.562000000
H    -4.484000000     1.151000000     4.457000000
O    -4.658000000    -4.487000000    -0.959000000
H    -3.806000000    -4.592000000    -1.383000000
H    -5.049000000    -5.360000000    -0.986000000
O    -4.935000000    -0.002000000    -6.107000000
H    -5.522000000    -0.756000000    -6.163000000
H    -4.064000000    -0.384000000    -5.999000000
O    -5.828000000    -0.074000000     0.401000000
H    -5.585000000    -0.664000000    -0.312000000
H    -5.266000000    -0.335000000     1.130000000
O     1.855000000    -3.915000000    -3.091000000
H     1.746000000    -4.161000000    -4.009000000
H     1.206000000    -3.227000000    -2.948000000
O     4.376000000     0.582000000    -4.323000000
H     3.519000000     0.711000000    -3.917000000
H     4.264000000    -0.191000000    -4.877000000
O     2.745000000    -5.613000000    -5.733000000
H     1.831000000    -5.378000000    -5.574000000
H     2.751000000    -5.958000000    -6.626000000
O    -0.256000000    -0.256000000    -6.984000000
H    -1.060000000     0.245000000    -6.844000000
H    -0.189000000    -0.339000000    -7.935000000
O     0.481000000     2.835000000    -0.950000000
H    -0.060000000     2.156000000    -0.546000000
H     0.088000000     2.972000000    -1.812000000
O     4.075000000     0.515000000     4.756000000
H     4.086000000    -0.116000000     4.037000000
H     4.130000000    -0.021000000     5.547000000
O     1.215000000    -2.592000000    -7.160000000
H     0.882000000    -3.218000000    -6.517000000
H     0.572000000    -1.883000000    -7.159000000
O    -4.310000000    -1.018000000     2.536000000
H    -3.497000000    -1.519000000     2.602000000
H    -4.112000000    -0.182000000     2.958000000
O    -2.535000000     4.025000000     4.397000000
H    -2.218000000     3.260000000     4.877000000
H    -3.148000000     4.449000000     4.998000000
O    -2.106000000     6.151000000     2.404000000
H    -1.754000000     6.825000000     2.986000000
H    -2.263000000     5.399000000     2.975000000
O     4.919000000     0.051000000     0.481000000
H     4.880000000     0.770000000    -0.150000000
H     4.859000000    -0.741000000    -0.054000000
O    -4.736000000    -1.661000000    -2.088000000
H    -3.795000000    -1.592000000    -2.249000000
H    -4.834000000    -2.471000000    -1.587000000
O    -2.796000000    -5.480000000    -4.381000000
H    -3.276000000    -6.096000000    -3.828000000
H    -3.409000000    -5.260000000    -5.083000000
O     4.033000000    -1.863000000    -5.983000000
H     3.127000000    -1.615000000    -6.165000000
H     3.975000000    -2.761000000    -5.656000000
O    -3.581000000     3.422000000    -0.931000000
H    -2.768000000     3.112000000    -1.329000000
H    -3.349000000     3.596000000    -0.018000000
O    -2.054000000    -2.335000000     2.147000000
H    -1.500000000    -1.709000000     1.680000000
H    -1.841000000    -3.182000000     1.755000000
O     3.010000000     3.211000000    -0.056000000
H     2.231000000     3.139000000    -0.609000000
H     3.356000000     2.320000000    -0.013000000
O     3.659000000     6.357000000     4.436000000
H     3.551000000     5.688000000     3.760000000
H     2.812000000     6.386000000     4.883000000
O     3.061000000     4.536000000     2.626000000
H     3.655000000     3.841000000     2.911000000
H     2.678000000     4.204000000     1.814000000
