144
-2810.37135
O     1.149000000    -1.965000000    -5.252000000
H     0.973000000    -2.316000000    -4.379000000
H     0.417000000    -1.373000000    -5.424000000
O    -4.257000000     1.294000000    -5.410000000
H    -5.058000000     0.774000000    -5.477000000
H    -4.171000000     1.483000000    -4.475000000
O    -2.743000000    -0.944000000    -7.346000000
H    -3.475000000    -0.394000000    -7.627000000
H    -2.331000000    -0.450000000    -6.637000000
O    -4.593000000     4.515000000    -3.619000000
H    -4.487000000     3.898000000    -2.895000000
H    -5.341000000     4.179000000    -4.113000000
O     1.730000000    -1.471000000     7.174000000
H     1.563000000    -0.941000000     6.395000000
H     2.631000000    -1.260000000     7.419000000
O    -0.807000000     0.112000000    -5.248000000
H    -1.615000000    -0.031000000    -4.754000000
H    -0.423000000     0.897000000    -4.858000000
O    -0.232000000     2.502000000     4.536000000
H    -1.099000000     2.903000000     4.599000000
H     0.376000000     3.240000000     4.576000000
O    -0.363000000    -2.114000000    -2.711000000
H    -1.253000000    -2.352000000    -2.451000000
H    -0.147000000    -1.361000000    -2.161000000
O    -3.122000000    -2.348000000     4.138000000
H    -2.693000000    -2.135000000     4.966000000
H    -3.471000000    -1.513000000     3.827000000
O    -4.444000000     3.602000000     0.482000000
H    -4.363000000     4.448000000     0.923000000
H    -4.415000000     2.959000000     1.190000000
O     1.127000000     4.369000000    -3.159000000
H     1.281000000     4.469000000    -4.099000000
H     0.791000000     3.477000000    -3.066000000
O     2.873000000     0.031000000    -6.999000000
H     2.723000000     0.507000000    -6.182000000
H     2.024000000    -0.357000000    -7.210000000
O    -1.393000000    -1.651000000     6.122000000
H    -0.592000000    -2.036000000     5.767000000
H    -1.162000000    -0.741000000     6.304000000
O     1.050000000     5.714000000    -0.561000000
H     1.265000000     5.058000000     0.103000000
H     1.150000000     5.253000000    -1.394000000
O    -3.541000000    -2.323000000     0.300000000
H    -4.075000000    -2.324000000    -0.495000000
H    -2.771000000    -2.843000000     0.072000000
O    -2.676000000     3.576000000     4.957000000
H    -3.416000000     3.966000000     5.421000000
H    -3.078000000     3.004000000     4.303000000
O    -2.231000000     4.767000000    -2.511000000
H    -2.904000000     4.678000000    -3.187000000
H    -1.725000000     3.957000000    -2.569000000
O     4.343000000    -2.122000000    -0.975000000
H     5.006000000    -2.783000000    -1.174000000
H     3.515000000    -2.529000000    -1.231000000
O     0.693000000     3.340000000     1.051000000
H     0.936000000     2.641000000     0.444000000
H     0.099000000     2.920000000     1.673000000
O    -1.915000000     3.284000000    -5.323000000
H    -1.477000000     2.979000000    -4.529000000
H    -2.609000000     2.643000000    -5.475000000
O     2.748000000     1.126000000    -4.576000000
H     3.215000000     0.686000000    -3.865000000
H     1.918000000     1.399000000    -4.184000000
O    -4.817000000    -0.819000000     2.316000000
H    -5.520000000    -1.442000000     2.498000000
H    -4.318000000    -1.220000000     1.605000000
O    -3.985000000     1.858000000    -1.944000000
H    -4.114000000     2.533000000    -1.277000000
H    -3.080000000     1.976000000    -2.230000000
O     0.726000000    -4.754000000     4.301000000
H     0.636000000    -4.740000000     3.348000000
H    -0.174000000    -4.728000000     4.626000000
O    -2.959000000    -0.750000000    -3.428000000
H    -3.315000000    -1.476000000    -3.940000000
H    -3.558000000    -0.663000000    -2.686000000
O     4.667000000     0.475000000    -2.593000000
H     5.038000000    -0.185000000    -2.007000000
H     5.313000000     0.562000000    -3.294000000
O    -0.382000000     1.035000000     6.782000000
H    -0.237000000     1.677000000     6.088000000
H     0.032000000     1.419000000     7.555000000
O     3.951000000    -3.304000000     4.820000000
H     3.157000000    -2.903000000     4.466000000
H     4.639000000    -2.659000000     4.654000000
O     1.686000000     3.878000000    -5.946000000
H     1.001000000     3.762000000    -6.605000000
H     1.777000000     3.015000000    -5.541000000
O     3.948000000    -5.671000000     2.829000000
H     4.806000000    -5.541000000     2.425000000
H     3.754000000    -4.835000000     3.253000000
O    -1.693000000    -4.159000000    -0.191000000
H    -0.946000000    -4.092000000     0.404000000
H    -1.492000000    -4.913000000    -0.745000000
O     3.932000000    -0.734000000     3.418000000
H     4.532000000     0.013000000     3.412000000
H     3.189000000    -0.439000000     3.945000000
O    -2.420000000    -4.768000000     4.007000000
H    -2.708000000    -3.856000000     4.046000000
H    -2.898000000    -5.138000000     3.265000000
O     4.036000000    -3.292000000    -3.645000000
H     3.866000000    -2.975000000    -4.532000000
H     3.369000000    -2.865000000    -3.107000000
O    -3.872000000    -4.651000000     1.667000000
H    -3.142000000    -4.723000000     1.053000000
H    -4.167000000    -3.744000000     1.585000000
O     2.021000000    -4.092000000    -1.368000000
H     1.217000000    -4.208000000    -1.874000000
H     2.528000000    -4.885000000    -1.540000000
O    -5.721000000    -0.197000000    -2.061000000
H    -5.274000000     0.629000000    -1.873000000
H    -6.489000000     0.057000000    -2.572000000
O    -4.642000000     2.071000000     3.161000000
H    -5.287000000     2.148000000     3.865000000
H    -4.759000000     1.182000000     2.827000000
O     5.952000000     1.021000000     3.420000000
H     5.322000000     1.543000000     2.923000000
H     6.805000000     1.377000000     3.174000000
O     3.696000000     2.351000000     1.806000000
H     3.800000000     1.881000000     0.978000000
H     2.941000000     2.922000000     1.664000000
O    -0.897000000     6.641000000    -4.304000000
H    -1.231000000     5.908000000    -3.788000000
H    -0.823000000     6.295000000    -5.193000000
O     0.253000000     2.486000000    -7.687000000
H     0.488000000     1.673000000    -8.134000000
H    -0.577000000     2.290000000    -7.253000000
O     1.835000000     0.265000000     5.002000000
H     2.467000000     0.981000000     5.069000000
H     1.009000000     0.694000000     4.778000000
O     0.950000000    -5.346000000     1.213000000
H     1.087000000    -6.163000000     0.733000000
H     1.710000000    -4.808000000     0.990000000
O     5.538000000    -2.273000000     1.545000000
H     5.112000000    -1.784000000     2.249000000
H     4.942000000    -2.187000000     0.800000000
O     4.373000000     2.564000000    -0.974000000
H     4.578000000     1.800000000    -1.512000000
H     4.234000000     3.271000000    -1.604000000
O    -1.542000000     6.391000000    -0.359000000
H    -1.994000000     5.772000000    -0.932000000
H    -0.634000000     6.379000000    -0.662000000
O    -7.318000000     0.569000000     2.093000000
H    -6.470000000     0.252000000     1.782000000
H    -7.959000000     0.026000000     1.635000000
