144
-2794.85641
O     4.827000000    -6.282000000    -0.192000000
H     5.013000000    -7.221000000    -0.202000000
H     5.205000000    -5.972000000     0.631000000
O     0.359000000    -5.467000000    -1.007000000
H    -0.567000000    -5.458000000    -1.250000000
H     0.822000000    -5.281000000    -1.824000000
O    -2.559000000     5.046000000    -1.518000000
H    -3.473000000     4.907000000    -1.767000000
H    -2.388000000     4.377000000    -0.855000000
O     5.281000000    -1.029000000    -0.791000000
H     4.956000000    -0.826000000     0.086000000
H     5.322000000    -1.985000000    -0.817000000
O     2.718000000     1.327000000     4.763000000
H     2.830000000     0.384000000     4.881000000
H     2.451000000     1.424000000     3.849000000
O    -2.375000000    -5.888000000    -0.892000000
H    -2.991000000    -6.316000000    -0.298000000
H    -2.906000000    -5.251000000    -1.370000000
O     6.691000000    -3.384000000     0.333000000
H     6.948000000    -3.746000000    -0.515000000
H     7.512000000    -3.306000000     0.820000000
O     4.560000000    -4.325000000    -2.091000000
H     4.550000000    -5.004000000    -1.416000000
H     3.644000000    -4.058000000    -2.175000000
O    -0.663000000     3.619000000    -6.280000000
H    -0.543000000     3.871000000    -5.365000000
H    -1.603000000     3.713000000    -6.433000000
O    -5.238000000     3.997000000    -0.782000000
H    -5.145000000     4.769000000    -0.225000000
H    -6.115000000     3.666000000    -0.590000000
O    -0.817000000     5.285000000    -3.691000000
H    -1.268000000     4.747000000    -3.041000000
H    -1.435000000     5.989000000    -3.890000000
O     0.325000000    -1.738000000    -5.690000000
H    -0.098000000    -2.012000000    -4.876000000
H     0.003000000    -0.849000000    -5.840000000
O    -0.947000000    -1.431000000     4.964000000
H    -1.846000000    -1.708000000     4.785000000
H    -0.869000000    -0.580000000     4.534000000
O    -3.165000000     3.152000000    -4.569000000
H    -4.087000000     2.894000000    -4.543000000
H    -3.137000000     3.988000000    -4.103000000
O     1.775000000     4.385000000    -1.912000000
H     0.913000000     4.581000000    -2.279000000
H     1.904000000     5.050000000    -1.236000000
O    -4.422000000     3.694000000     2.667000000
H    -4.021000000     4.459000000     2.255000000
H    -3.737000000     3.026000000     2.650000000
O     0.487000000     4.348000000     2.066000000
H    -0.242000000     3.975000000     1.571000000
H     0.956000000     3.588000000     2.411000000
O     4.584000000    -0.729000000     1.950000000
H     4.165000000    -1.208000000     2.665000000
H     5.511000000    -0.706000000     2.187000000
O     2.088000000    -5.734000000     1.128000000
H     1.527000000    -5.718000000     0.353000000
H     2.972000000    -5.862000000     0.783000000
O    -0.659000000     6.803000000    -0.784000000
H    -1.152000000     6.314000000    -1.443000000
H    -1.270000000     7.470000000    -0.474000000
O    -5.365000000     6.018000000     3.664000000
H    -5.107000000     5.097000000     3.706000000
H    -5.906000000     6.151000000     4.443000000
O    -6.512000000     0.347000000    -0.122000000
H    -6.919000000    -0.207000000     0.544000000
H    -5.584000000     0.360000000     0.110000000
O    -4.448000000    -2.677000000     1.679000000
H    -3.613000000    -2.786000000     1.223000000
H    -4.386000000    -3.260000000     2.435000000
O     1.591000000    -5.344000000    -3.418000000
H     1.701000000    -4.591000000    -3.998000000
H     2.284000000    -5.951000000    -3.679000000
O    -0.762000000     1.137000000     4.307000000
H    -1.432000000     1.799000000     4.136000000
H    -0.052000000     1.619000000     4.731000000
O    -2.490000000    -3.353000000    -2.985000000
H    -1.973000000    -3.964000000    -3.511000000
H    -2.014000000    -2.524000000    -3.045000000
O    -2.749000000     3.210000000     6.173000000
H    -2.462000000     4.010000000     5.732000000
H    -2.004000000     2.957000000     6.718000000
O     4.322000000     3.716000000    -0.957000000
H     4.357000000     3.913000000    -0.021000000
H     3.392000000     3.769000000    -1.178000000
O     2.715000000    -2.730000000    -4.343000000
H     3.393000000    -3.059000000    -4.934000000
H     1.992000000    -2.485000000    -4.921000000
O     1.056000000    -3.319000000     5.355000000
H     0.252000000    -2.878000000     5.083000000
H     1.663000000    -3.181000000     4.628000000
O    -0.631000000    -4.646000000    -4.770000000
H     0.059000000    -4.952000000    -4.181000000
H    -0.174000000    -4.430000000    -5.583000000
O    -4.481000000    -0.279000000    -2.954000000
H    -3.833000000    -0.983000000    -2.925000000
H    -4.333000000     0.216000000    -2.148000000
O    -2.450000000     5.504000000     1.681000000
H    -2.258000000     5.955000000     0.859000000
H    -2.224000000     4.589000000     1.511000000
O    -3.178000000    -0.432000000     7.182000000
H    -3.033000000    -0.628000000     6.257000000
H    -3.097000000    -1.278000000     7.623000000
O     2.267000000     2.342000000    -3.979000000
H     2.051000000     2.642000000    -3.096000000
H     2.904000000     1.640000000    -3.844000000
O    -1.109000000    -0.713000000    -3.218000000
H    -0.498000000    -0.326000000    -2.592000000
H    -1.283000000    -0.013000000    -3.848000000
O     1.895000000     0.931000000     2.248000000
H     1.121000000     0.449000000     1.958000000
H     2.594000000     0.637000000     1.664000000
O     6.138000000     2.054000000    -1.639000000
H     5.606000000     1.261000000    -1.701000000
H     5.540000000     2.717000000    -1.293000000
O    -3.964000000     1.222000000    -0.709000000
H    -3.589000000     1.340000000     0.164000000
H    -4.179000000     2.109000000    -0.998000000
O    -0.773000000    -5.278000000     2.160000000
H    -1.347000000    -5.297000000     1.395000000
H     0.081000000    -5.018000000     1.812000000
O     2.567000000     3.369000000    -6.517000000
H     1.742000000     3.832000000    -6.665000000
H     2.530000000     3.102000000    -5.599000000
O     4.280000000     0.334000000    -3.169000000
H     4.260000000    -0.369000000    -2.520000000
H     4.676000000    -0.065000000    -3.943000000
O     1.693000000     6.146000000     0.413000000
H     1.484000000     5.487000000     1.075000000
H     0.844000000     6.408000000     0.058000000
O    -3.307000000    -4.538000000     3.128000000
H    -2.437000000    -4.899000000     2.957000000
H    -3.376000000    -4.523000000     4.083000000
O    -3.563000000    -1.719000000     4.444000000
H    -3.494000000    -1.406000000     3.542000000
H    -4.497000000    -1.881000000     4.571000000
O    -3.974000000     1.133000000     4.449000000
H    -3.732000000     1.867000000     5.013000000
H    -3.599000000     1.352000000     3.596000000
O    -6.446000000     2.075000000     3.376000000
H    -5.797000000     2.674000000     3.006000000
H    -5.933000000     1.463000000     3.904000000
O    -1.789000000     5.410000000     4.823000000
H    -2.359000000     5.575000000     4.072000000
H    -0.903000000     5.520000000     4.479000000
