144
-2859.26215
O    -0.298000000    -4.676000000    -3.920000000
H    -0.344000000    -5.021000000    -3.028000000
H    -0.597000000    -3.770000000    -3.842000000
O     4.844000000     1.626000000     2.655000000
H     5.534000000     0.978000000     2.797000000
H     4.635000000     1.554000000     1.724000000
O    -0.500000000     2.884000000    -3.640000000
H     0.035000000     3.360000000    -3.004000000
H    -1.141000000     2.412000000    -3.108000000
O    -5.693000000     3.544000000    -4.811000000
H    -6.307000000     3.224000000    -4.150000000
H    -5.001000000     2.883000000    -4.835000000
O    -3.162000000     4.298000000    -2.179000000
H    -3.872000000     4.503000000    -1.571000000
H    -3.093000000     3.344000000    -2.154000000
O     2.830000000    -1.519000000    -4.081000000
H     1.929000000    -1.263000000    -3.884000000
H     3.188000000    -0.780000000    -4.572000000
O     3.470000000    -2.490000000     5.325000000
H     4.257000000    -2.566000000     4.785000000
H     3.037000000    -1.697000000     5.008000000
O    -1.808000000    -2.466000000    -3.885000000
H    -2.253000000    -1.775000000    -3.395000000
H    -2.503000000    -3.082000000    -4.116000000
O    -3.471000000    -5.697000000     0.993000000
H    -4.124000000    -5.799000000     1.686000000
H    -2.770000000    -5.187000000     1.399000000
O     1.541000000     4.644000000     1.683000000
H     1.683000000     5.369000000     2.292000000
H     0.904000000     4.982000000     1.053000000
O    -2.090000000     3.919000000     4.067000000
H    -2.342000000     3.277000000     4.731000000
H    -1.229000000     3.629000000     3.767000000
O    -0.906000000    -5.108000000    -1.041000000
H    -0.098000000    -5.604000000    -0.907000000
H    -1.129000000    -4.774000000    -0.172000000
O    -3.503000000    -2.438000000     2.835000000
H    -2.808000000    -1.839000000     2.560000000
H    -3.836000000    -2.061000000     3.649000000
O    -3.446000000     2.537000000     1.398000000
H    -3.398000000     3.492000000     1.362000000
H    -4.008000000     2.353000000     2.151000000
O     1.259000000     3.950000000    -1.558000000
H     2.108000000     4.177000000    -1.178000000
H     0.633000000     4.505000000    -1.093000000
O    -2.483000000    -0.185000000     1.611000000
H    -1.689000000    -0.119000000     1.082000000
H    -2.721000000     0.722000000     1.802000000
O    -0.421000000     5.392000000    -0.100000000
H    -1.269000000     5.068000000     0.202000000
H    -0.553000000     6.333000000    -0.219000000
O     1.670000000    -6.295000000    -0.986000000
H     2.083000000    -5.865000000    -1.735000000
H     2.248000000    -6.098000000    -0.249000000
O    -5.737000000     4.737000000    -0.760000000
H    -5.792000000     3.790000000    -0.885000000
H    -6.645000000     5.036000000    -0.790000000
O    -4.458000000    -4.894000000    -1.612000000
H    -4.911000000    -4.799000000    -0.774000000
H    -3.628000000    -5.315000000    -1.389000000
O    -2.497000000     3.654000000    -5.657000000
H    -2.825000000     2.788000000    -5.413000000
H    -2.605000000     4.182000000    -4.866000000
O    -5.667000000     0.144000000    -2.719000000
H    -5.819000000    -0.670000000    -2.239000000
H    -4.786000000     0.047000000    -3.082000000
O     0.401000000     3.293000000     3.604000000
H     0.913000000     3.755000000     4.267000000
H     0.924000000     3.363000000     2.805000000
O     2.403000000     1.286000000    -2.124000000
H     1.594000000     0.776000000    -2.083000000
H     2.130000000     2.183000000    -1.933000000
O    -5.689000000     1.855000000    -0.549000000
H    -4.784000000     1.991000000    -0.271000000
H    -5.615000000     1.426000000    -1.402000000
O    -4.882000000    -2.342000000    -1.690000000
H    -4.580000000    -3.244000000    -1.799000000
H    -4.192000000    -1.809000000    -2.087000000
O     6.619000000    -0.353000000     3.377000000
H     7.304000000    -0.348000000     4.046000000
H     6.233000000    -1.227000000     3.436000000
O     0.933000000     1.271000000     5.357000000
H     1.862000000     1.484000000     5.265000000
H     0.495000000     1.825000000     4.712000000
O    -0.589000000    -2.951000000     4.119000000
H    -0.652000000    -2.072000000     4.493000000
H    -0.980000000    -3.521000000     4.781000000
O     1.591000000     2.807000000    -5.484000000
H     0.760000000     2.627000000    -5.043000000
H     1.529000000     2.335000000    -6.314000000
O     3.248000000    -5.282000000     1.089000000
H     2.559000000    -5.323000000     1.751000000
H     3.331000000    -4.351000000     0.886000000
O     7.258000000    -1.597000000     0.287000000
H     7.670000000    -0.848000000     0.718000000
H     7.793000000    -2.347000000     0.546000000
O    -7.424000000    -3.489000000    -1.964000000
H    -6.565000000    -3.089000000    -2.097000000
H    -7.339000000    -3.971000000    -1.142000000
O     3.619000000    -0.895000000    -1.414000000
H     3.261000000    -1.191000000    -2.251000000
H     3.207000000    -0.044000000    -1.265000000
O    -1.295000000    -4.196000000     1.657000000
H    -0.411000000    -4.483000000     1.885000000
H    -1.435000000    -3.409000000     2.184000000
O    -5.430000000    -1.403000000     1.178000000
H    -5.314000000    -1.350000000     0.230000000
H    -4.550000000    -1.563000000     1.519000000
O    -2.460000000     5.360000000     1.618000000
H    -2.546000000     4.827000000     2.408000000
H    -2.840000000     6.206000000     1.857000000
O     5.358000000    -2.717000000     3.264000000
H     5.002000000    -2.636000000     2.379000000
H     5.702000000    -3.609000000     3.303000000
O     5.117000000     2.087000000     0.174000000
H     5.853000000     2.670000000     0.358000000
H     4.992000000     2.151000000    -0.773000000
O    -3.811000000     1.476000000    -4.531000000
H    -3.336000000     1.554000000    -3.703000000
H    -3.258000000     0.914000000    -5.073000000
O     3.545000000     1.283000000     4.840000000
H     4.026000000     1.485000000     4.037000000
H     4.224000000     1.059000000     5.476000000
O     1.027000000    -4.694000000     2.857000000
H     0.716000000    -4.028000000     3.470000000
H     0.794000000    -5.526000000     3.269000000
O     0.109000000    -0.510000000    -3.709000000
H    -0.567000000    -1.175000000    -3.836000000
H    -0.195000000     0.241000000    -4.219000000
O     4.621000000    -2.700000000     0.519000000
H     4.172000000    -2.089000000    -0.064000000
H     5.551000000    -2.514000000     0.391000000
O     6.322000000    -0.834000000    -2.075000000
H     5.399000000    -0.815000000    -1.822000000
H     6.791000000    -0.994000000    -1.257000000
O     3.754000000     4.778000000    -0.827000000
H     3.511000000     5.442000000    -0.183000000
H     4.644000000     4.522000000    -0.584000000
O    -1.930000000     0.144000000    -6.009000000
H    -2.043000000     0.547000000    -6.870000000
H    -2.090000000    -0.788000000    -6.158000000
O     4.927000000     4.452000000     2.332000000
H     4.279000000     3.768000000     2.500000000
H     5.747000000     3.977000000     2.196000000
