144
-2844.85752
O     1.682000000    -4.436000000     4.664000000
H     2.118000000    -4.334000000     3.818000000
H     1.521000000    -5.376000000     4.739000000
O    -0.171000000     6.260000000    -1.542000000
H    -0.158000000     5.353000000    -1.235000000
H     0.728000000     6.566000000    -1.425000000
O    -1.126000000    -4.645000000     5.169000000
H    -0.381000000    -4.154000000     4.821000000
H    -0.845000000    -5.560000000     5.137000000
O     2.215000000     1.561000000    -3.022000000
H     2.676000000     1.738000000    -3.842000000
H     1.575000000     2.270000000    -2.950000000
O    -0.684000000    -6.099000000     2.256000000
H    -0.311000000    -6.177000000     1.378000000
H    -1.615000000    -5.935000000     2.107000000
O     0.510000000     4.819000000     5.254000000
H     1.434000000     4.662000000     5.450000000
H     0.263000000     4.101000000     4.671000000
O     2.289000000     0.347000000     4.731000000
H     2.304000000     1.279000000     4.950000000
H     3.044000000     0.224000000     4.156000000
O     1.202000000    -1.786000000     5.889000000
H     1.371000000    -2.410000000     5.184000000
H     1.495000000    -0.945000000     5.540000000
O     0.883000000    -0.549000000    -4.751000000
H     1.095000000     0.351000000    -4.502000000
H     1.284000000    -1.088000000    -4.069000000
O    -3.117000000     6.334000000    -1.163000000
H    -3.002000000     5.384000000    -1.137000000
H    -2.851000000     6.584000000    -2.048000000
O    -4.251000000    -2.206000000    -2.451000000
H    -3.491000000    -1.752000000    -2.815000000
H    -3.988000000    -2.437000000    -1.560000000
O     0.576000000    -6.070000000    -1.166000000
H     1.320000000    -5.987000000    -0.569000000
H     0.158000000    -6.894000000    -0.914000000
O    -1.368000000     7.190000000     1.028000000
H    -1.508000000     7.582000000     0.166000000
H    -2.236000000     6.888000000     1.298000000
O     3.207000000     3.466000000     4.964000000
H     3.390000000     4.158000000     4.328000000
H     4.041000000     3.325000000     5.411000000
O     3.336000000     4.764000000    -1.124000000
H     4.113000000     4.205000000    -1.118000000
H     2.659000000     4.237000000    -0.699000000
O    -4.827000000     0.448000000     0.515000000
H    -3.964000000     0.706000000     0.838000000
H    -5.089000000    -0.276000000     1.084000000
O    -0.913000000     7.715000000    -3.859000000
H    -0.700000000     7.258000000    -3.045000000
H    -0.236000000     8.387000000    -3.940000000
O    -3.601000000     5.467000000     2.095000000
H    -3.336000000     4.755000000     1.512000000
H    -3.808000000     5.033000000     2.923000000
O     3.491000000     2.981000000     1.806000000
H     4.080000000     3.672000000     1.502000000
H     2.690000000     3.108000000     1.297000000
O     2.926000000    -6.611000000     2.393000000
H     2.722000000    -7.030000000     1.557000000
H     2.834000000    -5.674000000     2.221000000
O    -2.053000000    -1.439000000    -4.089000000
H    -1.130000000    -1.196000000    -4.021000000
H    -2.238000000    -1.417000000    -5.028000000
O     3.065000000    -5.328000000    -0.125000000
H     3.734000000    -5.938000000    -0.437000000
H     3.557000000    -4.550000000     0.140000000
O    -2.521000000    -3.199000000     2.875000000
H    -1.947000000    -2.557000000     3.293000000
H    -2.195000000    -4.046000000     3.180000000
O    -4.810000000    -2.764000000     4.742000000
H    -4.023000000    -2.718000000     4.198000000
H    -4.480000000    -2.908000000     5.629000000
O    -3.984000000    -2.748000000     0.278000000
H    -3.242000000    -3.003000000     0.827000000
H    -4.531000000    -2.210000000     0.851000000
O    -2.811000000     3.524000000     0.603000000
H    -2.678000000     2.780000000     1.191000000
H    -2.095000000     3.461000000    -0.029000000
O     3.794000000    -1.322000000     1.694000000
H     4.236000000    -0.492000000     1.873000000
H     4.452000000    -1.850000000     1.240000000
O    -1.250000000    -1.379000000     4.473000000
H    -0.511000000    -1.692000000     4.994000000
H    -1.209000000    -0.425000000     4.547000000
O     4.925000000     0.617000000     3.426000000
H     4.511000000     1.476000000     3.342000000
H     5.864000000     0.804000000     3.439000000
O     3.130000000     5.728000000     3.042000000
H     3.928000000     5.576000000     2.536000000
H     2.434000000     5.771000000     2.386000000
O     5.484000000     5.007000000     1.533000000
H     5.629000000     5.472000000     0.709000000
H     6.362000000     4.867000000     1.886000000
O     2.412000000     7.316000000    -1.874000000
H     3.235000000     7.789000000    -1.746000000
H     2.626000000     6.405000000    -1.671000000
O    -1.576000000     1.587000000     4.187000000
H    -2.001000000     2.124000000     4.855000000
H    -0.926000000     2.167000000     3.791000000
O     5.168000000     2.515000000    -1.418000000
H     5.996000000     2.037000000    -1.441000000
H     4.500000000     1.845000000    -1.565000000
O     1.879000000     5.444000000    -4.181000000
H     1.015000000     5.176000000    -4.494000000
H     1.697000000     6.047000000    -3.460000000
O     3.527000000     0.020000000    -1.294000000
H     3.005000000     0.087000000    -0.494000000
H     2.999000000     0.459000000    -1.961000000
O    -4.524000000    -5.448000000    -0.819000000
H    -4.671000000    -5.209000000    -1.735000000
H    -4.168000000    -4.654000000    -0.420000000
O    -3.328000000    -6.109000000     2.098000000
H    -4.150000000    -5.692000000     2.355000000
H    -3.555000000    -7.031000000     1.976000000
O    -3.134000000     2.590000000    -3.778000000
H    -3.481000000     1.707000000    -3.657000000
H    -3.476000000     3.086000000    -3.034000000
O    -0.250000000     3.474000000    -3.515000000
H    -1.140000000     3.170000000    -3.691000000
H    -0.275000000     3.776000000    -2.607000000
O     0.878000000     3.023000000     3.427000000
H     1.783000000     2.781000000     3.622000000
H     0.855000000     3.117000000     2.475000000
O    -2.300000000    -4.267000000    -3.816000000
H    -3.075000000    -4.670000000    -3.425000000
H    -2.443000000    -3.325000000    -3.715000000
O     1.335000000     6.104000000     1.184000000
H     0.431000000     6.419000000     1.211000000
H     1.290000000     5.294000000     0.676000000
O     3.413000000    -3.894000000     2.394000000
H     3.433000000    -2.978000000     2.117000000
H     4.252000000    -4.029000000     2.835000000
O     2.386000000    -2.137000000    -2.958000000
H     2.861000000    -1.974000000    -2.143000000
H     1.833000000    -2.895000000    -2.766000000
O    -4.213000000     4.040000000    -1.984000000
H    -4.024000000     3.771000000    -1.086000000
H    -5.065000000     4.473000000    -1.930000000
O     0.415000000    -4.081000000    -3.010000000
H     0.595000000    -4.617000000    -2.237000000
H    -0.538000000    -4.088000000    -3.089000000
O    -2.284000000     1.248000000     1.759000000
H    -2.325000000     1.242000000     2.716000000
H    -1.537000000     0.689000000     1.548000000
