144
-2815.70157
O     0.643000000    -2.640000000     3.884000000
H     0.746000000    -3.541000000     4.189000000
H    -0.207000000    -2.633000000     3.442000000
O     2.666000000     5.601000000     1.137000000
H     2.384000000     4.735000000     0.842000000
H     3.620000000     5.538000000     1.184000000
O    -1.236000000    -6.768000000     2.084000000
H    -0.825000000    -6.323000000     1.343000000
H    -1.781000000    -7.445000000     1.684000000
O    -6.320000000    -0.033000000     2.378000000
H    -6.132000000    -0.179000000     3.305000000
H    -5.977000000    -0.812000000     1.939000000
O    -4.156000000    -1.602000000    -2.212000000
H    -3.967000000    -0.675000000    -2.358000000
H    -3.298000000    -2.004000000    -2.080000000
O    -4.198000000    -2.896000000     2.390000000
H    -3.554000000    -2.207000000     2.556000000
H    -4.765000000    -2.535000000     1.709000000
O     2.602000000     7.677000000    -0.642000000
H     3.449000000     7.879000000    -1.038000000
H     2.773000000     6.919000000    -0.083000000
O    -3.021000000    -4.262000000    -2.910000000
H    -3.039000000    -4.137000000    -3.859000000
H    -3.913000000    -4.527000000    -2.686000000
O    -0.531000000     6.253000000     1.330000000
H    -0.236000000     5.460000000     0.883000000
H    -0.102000000     6.220000000     2.186000000
O     1.387000000    -2.208000000    -3.263000000
H     0.461000000    -2.316000000    -3.046000000
H     1.684000000    -3.091000000    -3.484000000
O     2.875000000    -4.889000000     0.120000000
H     3.376000000    -4.150000000    -0.225000000
H     2.829000000    -5.508000000    -0.608000000
O     2.426000000    -1.841000000    -6.149000000
H     3.233000000    -2.322000000    -5.966000000
H     2.103000000    -1.579000000    -5.286000000
O    -0.768000000     3.940000000    -3.748000000
H     0.127000000     3.880000000    -3.412000000
H    -1.306000000     4.080000000    -2.969000000
O     6.336000000     0.390000000     2.820000000
H     5.515000000     0.712000000     2.448000000
H     6.979000000     1.064000000     2.600000000
O    -0.647000000    -5.566000000    -3.013000000
H    -1.308000000    -4.889000000    -2.871000000
H    -1.150000000    -6.374000000    -3.117000000
O    -5.465000000    -5.246000000    -1.882000000
H    -5.602000000    -5.941000000    -2.526000000
H    -5.895000000    -4.480000000    -2.262000000
O     3.009000000    -5.862000000    -2.313000000
H     2.646000000    -5.477000000    -3.110000000
H     3.692000000    -6.457000000    -2.623000000
O     1.396000000     0.767000000    -3.189000000
H     2.151000000     1.178000000    -2.769000000
H     1.315000000    -0.083000000    -2.756000000
O    -2.045000000    -4.717000000     3.850000000
H    -2.600000000    -4.228000000     3.242000000
H    -1.799000000    -5.506000000     3.367000000
O    -3.682000000     0.990000000    -2.514000000
H    -3.788000000     1.144000000    -3.453000000
H    -2.824000000     1.362000000    -2.306000000
O    -5.893000000     2.515000000    -1.451000000
H    -5.052000000     2.132000000    -1.698000000
H    -6.512000000     1.786000000    -1.500000000
O    -0.201000000     2.319000000     5.866000000
H     0.686000000     2.087000000     6.142000000
H    -0.230000000     2.090000000     4.937000000
O    -5.608000000    -2.060000000     0.216000000
H    -6.007000000    -2.876000000    -0.084000000
H    -5.057000000    -1.781000000    -0.516000000
O    -3.231000000     4.051000000     0.858000000
H    -4.002000000     3.487000000     0.914000000
H    -2.844000000     4.015000000     1.733000000
O    -2.793000000    -0.717000000     2.884000000
H    -3.224000000     0.059000000     3.241000000
H    -1.995000000    -0.381000000     2.477000000
O     4.421000000     1.688000000     1.413000000
H     3.804000000     2.395000000     1.221000000
H     4.766000000     1.432000000     0.558000000
O    -1.953000000     4.038000000     4.303000000
H    -1.290000000     4.008000000     4.993000000
H    -2.538000000     3.306000000     4.500000000
O    -5.390000000     2.417000000     1.203000000
H    -5.931000000     2.551000000     0.425000000
H    -5.923000000     1.861000000     1.772000000
O    -0.932000000     7.640000000    -2.864000000
H    -1.864000000     7.454000000    -2.971000000
H    -0.550000000     6.804000000    -2.597000000
O     4.166000000    -1.117000000    -0.430000000
H     3.853000000    -1.059000000     0.473000000
H     4.848000000    -0.448000000    -0.491000000
O     5.728000000     1.306000000    -0.747000000
H     6.204000000     2.092000000    -0.476000000
H     6.355000000     0.820000000    -1.283000000
O    -6.025000000    -3.135000000    -3.486000000
H    -6.028000000    -3.166000000    -4.443000000
H    -5.216000000    -2.675000000    -3.264000000
O     0.899000000     5.732000000    -1.963000000
H     1.348000000     6.473000000    -1.556000000
H     0.697000000     5.145000000    -1.235000000
O     1.511000000     7.069000000     3.417000000
H     1.944000000     6.851000000     2.591000000
H     1.536000000     6.257000000     3.922000000
O    -3.395000000     6.719000000     1.013000000
H    -3.250000000     5.803000000     0.776000000
H    -2.516000000     7.075000000     1.143000000
O     3.428000000     2.189000000    -2.140000000
H     2.992000000     2.553000000    -1.369000000
H     4.206000000     1.753000000    -1.791000000
O     5.409000000     4.805000000     1.501000000
H     6.323000000     5.037000000     1.335000000
H     5.448000000     3.917000000     1.854000000
O    -1.103000000     0.816000000    -5.114000000
H    -1.817000000     1.418000000    -4.905000000
H    -0.577000000     0.781000000    -4.315000000
O     2.976000000    -1.127000000     2.538000000
H     3.675000000    -1.761000000     2.701000000
H     2.178000000    -1.654000000     2.499000000
O     5.615000000    -3.358000000    -0.891000000
H     6.050000000    -3.427000000    -0.041000000
H     5.094000000    -2.558000000    -0.829000000
O     2.415000000    -5.294000000     3.093000000
H     3.105000000    -4.724000000     3.434000000
H     2.645000000    -5.424000000     2.173000000
O     0.661000000     4.330000000     3.668000000
H    -0.278000000     4.281000000     3.490000000
H     1.070000000     3.908000000     2.912000000
O    -1.022000000    -2.100000000    -4.868000000
H    -0.677000000    -1.637000000    -5.631000000
H    -1.622000000    -2.750000000    -5.234000000
O    -2.433000000     4.376000000    -1.907000000
H    -3.306000000     4.640000000    -2.198000000
H    -2.474000000     4.423000000    -0.952000000
O     0.055000000    -5.879000000    -0.270000000
H     0.121000000    -5.837000000    -1.225000000
H     0.848000000    -5.444000000     0.043000000
O     2.186000000     1.393000000     3.447000000
H     2.670000000     1.864000000     2.770000000
H     2.187000000     0.482000000     3.152000000
O     1.887000000    -4.681000000    -4.561000000
H     1.719000000    -4.326000000    -5.435000000
H     1.037000000    -5.014000000    -4.271000000
O     3.213000000     3.363000000    -4.771000000
H     3.425000000     2.455000000    -4.989000000
H     3.117000000     3.363000000    -3.819000000
