144
-2801.76251
O     4.569000000     0.711000000    -1.660000000
H     5.271000000     0.132000000    -1.363000000
H     4.126000000     0.217000000    -2.350000000
O    -1.942000000     3.331000000    -3.911000000
H    -2.356000000     2.577000000    -3.491000000
H    -1.547000000     3.820000000    -3.190000000
O     4.910000000     1.350000000     1.173000000
H     4.460000000     0.971000000     0.417000000
H     5.782000000     0.956000000     1.155000000
O    -3.543000000    -0.448000000    -6.243000000
H    -4.051000000    -1.240000000    -6.064000000
H    -3.782000000    -0.208000000    -7.138000000
O    -4.295000000     5.410000000    -4.131000000
H    -3.567000000     4.886000000    -3.796000000
H    -4.833000000     5.593000000    -3.360000000
O    -2.312000000     3.905000000     1.052000000
H    -1.765000000     3.547000000     1.752000000
H    -2.540000000     3.147000000     0.514000000
O    -3.293000000    -1.495000000    -3.474000000
H    -3.542000000    -0.705000000    -2.996000000
H    -2.424000000    -1.299000000    -3.826000000
O     0.795000000     5.044000000     2.567000000
H     1.309000000     4.325000000     2.199000000
H    -0.066000000     4.661000000     2.735000000
O    -0.915000000     1.570000000     5.822000000
H    -0.722000000     1.817000000     6.726000000
H    -0.242000000     0.927000000     5.600000000
O    -2.744000000    -4.138000000    -3.062000000
H    -1.998000000    -4.030000000    -2.472000000
H    -3.123000000    -3.262000000    -3.132000000
O    -1.820000000    -3.790000000     4.463000000
H    -0.949000000    -3.399000000     4.537000000
H    -2.415000000    -3.110000000     4.777000000
O     1.245000000     2.703000000    -1.595000000
H     0.469000000     3.263000000    -1.626000000
H     0.993000000     1.975000000    -1.026000000
O    -4.161000000    -0.317000000     2.285000000
H    -4.474000000    -1.178000000     2.008000000
H    -3.295000000    -0.237000000     1.886000000
O    -0.791000000     4.855000000    -1.957000000
H     0.044000000     5.118000000    -2.345000000
H    -0.739000000     5.153000000    -1.049000000
O     3.805000000     3.937000000    -2.363000000
H     4.249000000     3.365000000    -2.988000000
H     3.050000000     3.428000000    -2.068000000
O     0.231000000    -3.572000000    -2.062000000
H     0.184000000    -3.036000000    -2.854000000
H     1.158000000    -3.568000000    -1.824000000
O    -1.934000000     3.967000000    -6.539000000
H    -2.012000000     3.908000000    -5.586000000
H    -1.141000000     3.472000000    -6.745000000
O    -5.014000000     2.570000000    -2.897000000
H    -4.196000000     2.133000000    -2.658000000
H    -5.083000000     3.302000000    -2.284000000
O    -4.884000000    -2.590000000    -5.498000000
H    -5.598000000    -3.031000000    -5.038000000
H    -4.306000000    -2.278000000    -4.802000000
O     3.969000000    -3.855000000    -0.382000000
H     4.322000000    -4.552000000    -0.936000000
H     4.139000000    -4.150000000     0.512000000
O     1.221000000     0.251000000     5.015000000
H     1.976000000    -0.021000000     5.537000000
H     1.563000000     0.934000000     4.438000000
O     1.613000000     0.973000000    -4.315000000
H     1.608000000     1.350000000    -3.435000000
H     0.701000000     1.024000000    -4.603000000
O    -4.679000000     1.985000000     3.671000000
H    -4.313000000     1.246000000     3.186000000
H    -4.590000000     1.735000000     4.591000000
O     0.506000000    -2.582000000     4.987000000
H     0.700000000    -1.647000000     4.924000000
H     0.710000000    -2.808000000     5.895000000
O     3.385000000     3.779000000     1.876000000
H     3.254000000     3.684000000     2.819000000
H     3.988000000     3.073000000     1.646000000
O     4.575000000    -4.659000000     2.031000000
H     3.922000000    -4.449000000     2.700000000
H     5.104000000    -5.354000000     2.423000000
O    -6.436000000    -0.965000000    -2.131000000
H    -6.037000000    -1.413000000    -1.385000000
H    -5.733000000    -0.905000000    -2.778000000
O    -4.006000000     4.560000000    -1.122000000
H    -3.710000000     3.777000000    -0.658000000
H    -3.261000000     5.159000000    -1.080000000
O     6.737000000    -0.686000000     4.602000000
H     7.388000000    -1.387000000     4.636000000
H     5.906000000    -1.121000000     4.793000000
O    -2.974000000    -1.438000000     5.303000000
H    -3.405000000    -0.605000000     5.111000000
H    -2.475000000    -1.270000000     6.102000000
O    -1.701000000    -3.040000000    -0.121000000
H    -1.338000000    -3.520000000     0.623000000
H    -0.996000000    -3.033000000    -0.769000000
O     0.148000000     2.242000000    -7.283000000
H     0.181000000     1.476000000    -6.710000000
H    -0.467000000     1.998000000    -7.974000000
O     1.216000000    -6.263000000     3.313000000
H     1.197000000    -7.150000000     2.953000000
H     0.633000000    -5.761000000     2.743000000
O    -3.194000000     6.545000000     0.846000000
H    -2.336000000     6.949000000     0.711000000
H    -3.016000000     5.605000000     0.863000000
O     5.812000000    -1.482000000    -0.418000000
H     6.321000000    -1.231000000     0.353000000
H     5.526000000    -2.376000000    -0.235000000
O    -4.262000000    -2.410000000     0.308000000
H    -3.311000000    -2.392000000     0.200000000
H    -4.425000000    -3.161000000     0.879000000
O    -5.619000000     1.618000000     0.468000000
H    -4.878000000     1.840000000    -0.096000000
H    -5.275000000     0.954000000     1.065000000
O    -1.275000000     3.183000000     3.465000000
H    -1.282000000     2.342000000     3.923000000
H    -1.805000000     3.760000000     4.015000000
O     4.653000000    -2.752000000     5.607000000
H     4.098000000    -3.045000000     4.884000000
H     5.442000000    -3.290000000     5.536000000
O     3.434000000    -0.894000000    -4.114000000
H     4.123000000    -0.643000000    -4.729000000
H     2.715000000    -0.290000000    -4.299000000
O    -1.362000000     0.414000000    -4.689000000
H    -1.784000000     0.736000000    -3.893000000
H    -2.087000000     0.242000000    -5.291000000
O     2.970000000     2.535000000     4.443000000
H     2.915000000     2.973000000     5.292000000
H     3.892000000     2.604000000     4.197000000
O     2.793000000    -4.064000000     4.002000000
H     2.364000000    -4.919000000     4.047000000
H     2.129000000    -3.447000000     4.308000000
O    -7.715000000     3.526000000    -2.715000000
H    -6.866000000     3.112000000    -2.870000000
H    -8.122000000     3.569000000    -3.580000000
O     0.600000000    -1.954000000    -4.229000000
H     1.531000000    -1.734000000    -4.189000000
H     0.233000000    -1.328000000    -4.852000000
O     3.152000000    -3.296000000    -2.884000000
H     3.674000000    -2.592000000    -3.271000000
H     3.330000000    -3.236000000    -1.945000000
O    -6.193000000     2.411000000    -5.330000000
H    -6.610000000     1.587000000    -5.080000000
H    -5.528000000     2.557000000    -4.657000000
O    -5.520000000     4.499000000     3.037000000
H    -5.226000000     3.588000000     3.061000000
H    -6.072000000     4.592000000     3.814000000
