144
-2821.92707
O     3.104000000     8.027000000    -0.563000000
H     2.435000000     7.379000000    -0.346000000
H     3.607000000     8.132000000     0.245000000
O    -1.310000000     6.887000000     0.922000000
H    -1.720000000     6.267000000     1.526000000
H    -1.682000000     7.736000000     1.161000000
O    -4.469000000    -4.054000000     1.128000000
H    -4.623000000    -4.003000000     0.184000000
H    -4.102000000    -4.928000000     1.264000000
O    -4.260000000     1.607000000     2.159000000
H    -3.883000000     0.867000000     2.635000000
H    -5.101000000     1.764000000     2.589000000
O    -5.078000000    -4.750000000    -1.710000000
H    -5.430000000    -5.626000000    -1.872000000
H    -5.772000000    -4.156000000    -1.996000000
O     3.785000000     4.776000000    -0.961000000
H     3.051000000     5.379000000    -0.848000000
H     3.407000000     3.908000000    -0.815000000
O    -3.142000000    -7.846000000    -1.125000000
H    -4.030000000    -8.112000000    -1.364000000
H    -3.265000000    -7.173000000    -0.455000000
O     4.918000000     4.929000000    -3.450000000
H     4.682000000     4.770000000    -2.537000000
H     4.628000000     4.144000000    -3.913000000
O     0.959000000    -5.991000000    -4.602000000
H     1.103000000    -6.904000000    -4.353000000
H     1.141000000    -5.494000000    -3.804000000
O     1.302000000     6.232000000    -0.132000000
H     0.428000000     6.536000000     0.112000000
H     1.316000000     5.310000000     0.126000000
O    -0.884000000    -2.006000000    -3.083000000
H    -1.664000000    -1.871000000    -2.545000000
H    -0.416000000    -2.721000000    -2.653000000
O     0.873000000     2.056000000    -5.400000000
H    -0.057000000     2.093000000    -5.178000000
H     1.286000000     2.687000000    -4.810000000
O    -1.806000000    -6.991000000     1.975000000
H    -1.196000000    -7.557000000     2.447000000
H    -1.327000000    -6.724000000     1.191000000
O     4.379000000     1.410000000    -1.050000000
H     4.407000000     1.407000000    -0.094000000
H     3.587000000     1.902000000    -1.265000000
O     1.279000000    -1.138000000    -4.953000000
H     0.864000000    -1.487000000    -5.742000000
H     0.649000000    -1.311000000    -4.254000000
O    -2.839000000    -0.967000000    -4.789000000
H    -2.653000000    -1.443000000    -5.599000000
H    -2.149000000    -1.244000000    -4.186000000
O    -2.561000000    -6.539000000    -3.376000000
H    -2.106000000    -5.699000000    -3.326000000
H    -3.009000000    -6.620000000    -2.534000000
O     4.335000000     2.376000000    -4.543000000
H     4.872000000     2.459000000    -5.332000000
H     4.257000000     1.432000000    -4.406000000
O     4.397000000    -2.090000000    -1.081000000
H     4.870000000    -2.149000000    -1.911000000
H     3.916000000    -1.264000000    -1.138000000
O     3.992000000    -0.359000000    -4.926000000
H     3.076000000    -0.638000000    -4.944000000
H     4.416000000    -0.888000000    -5.602000000
O     0.952000000    -4.521000000     3.343000000
H     0.718000000    -5.417000000     3.585000000
H     0.435000000    -3.971000000     3.932000000
O     2.779000000     2.344000000     3.822000000
H     2.673000000     2.070000000     4.733000000
H     2.417000000     1.620000000     3.311000000
O    -4.220000000    -0.871000000     0.011000000
H    -3.582000000    -1.370000000     0.521000000
H    -3.995000000    -1.058000000    -0.901000000
O     2.118000000    -0.105000000     2.661000000
H     2.622000000    -0.910000000     2.542000000
H     1.427000000    -0.155000000     2.001000000
O     2.881000000    -4.371000000    -0.636000000
H     3.324000000    -3.544000000    -0.824000000
H     3.566000000    -5.034000000    -0.716000000
O    -4.254000000    -2.373000000     3.111000000
H    -4.158000000    -2.770000000     2.245000000
H    -4.431000000    -3.111000000     3.694000000
O     5.923000000     0.157000000    -3.014000000
H     5.493000000    -0.109000000    -3.826000000
H     5.204000000     0.366000000    -2.419000000
O    -3.033000000     4.600000000     2.990000000
H    -2.805000000     3.717000000     2.699000000
H    -3.775000000     4.473000000     3.582000000
O     1.208000000     4.438000000     2.700000000
H     0.961000000     4.086000000     1.845000000
H     1.633000000     3.706000000     3.147000000
O    -1.948000000     4.094000000    -0.285000000
H    -1.998000000     4.981000000    -0.643000000
H    -1.022000000     3.972000000    -0.076000000
O     0.250000000    -0.348000000     5.069000000
H     0.976000000    -0.254000000     4.452000000
H    -0.182000000     0.506000000     5.064000000
O     2.806000000     6.616000000     2.258000000
H     2.348000000     5.777000000     2.216000000
H     2.112000000     7.271000000     2.185000000
O     6.652000000     2.946000000    -1.598000000
H     6.806000000     2.467000000    -2.412000000
H     5.884000000     2.523000000    -1.213000000
O    -3.682000000    -2.513000000    -2.554000000
H    -3.880000000    -2.646000000    -3.481000000
H    -3.901000000    -3.347000000    -2.139000000
O     2.041000000     3.555000000    -3.645000000
H     2.772000000     3.001000000    -3.917000000
H     2.047000000     3.508000000    -2.689000000
O     0.483000000     7.867000000     2.854000000
H     0.203000000     7.118000000     3.381000000
H    -0.036000000     7.803000000     2.053000000
O    -3.551000000     2.092000000    -1.267000000
H    -3.047000000     2.778000000    -0.830000000
H    -3.725000000     1.448000000    -0.581000000
O     6.185000000     5.710000000    -0.367000000
H     5.291000000     5.377000000    -0.452000000
H     6.725000000     5.066000000    -0.826000000
O     0.348000000    -4.472000000    -2.030000000
H    -0.030000000    -5.231000000    -1.586000000
H     1.211000000    -4.366000000    -1.630000000
O     4.693000000     1.957000000     1.852000000
H     4.065000000     2.148000000     2.549000000
H     5.419000000     2.559000000     2.013000000
O    -0.190000000    -6.968000000    -0.746000000
H    -0.753000000    -7.708000000    -0.517000000
H     0.700000000    -7.291000000    -0.607000000
O    -0.581000000     5.609000000     4.203000000
H    -0.105000000     5.111000000     3.539000000
H    -1.497000000     5.558000000     3.929000000
O    -1.592000000     2.285000000    -4.334000000
H    -2.122000000     2.379000000    -3.543000000
H    -1.822000000     3.045000000    -4.869000000
O    -4.013000000     0.058000000     4.383000000
H    -4.217000000    -0.263000000     5.261000000
H    -3.928000000    -0.734000000     3.852000000
O    -3.601000000     2.490000000     5.286000000
H    -3.887000000     1.750000000     4.750000000
H    -3.596000000     2.149000000     6.181000000
O     2.889000000    -2.901000000     2.477000000
H     2.195000000    -3.357000000     2.954000000
H     2.725000000    -3.113000000     1.557000000
O    -0.648000000     2.533000000     4.821000000
H    -1.583000000     2.494000000     5.024000000
H    -0.288000000     3.142000000     5.467000000
O     1.517000000     6.458000000    -4.449000000
H     1.924000000     7.014000000    -3.785000000
H     1.714000000     5.565000000    -4.167000000
