144
-2790.03783
O     2.279000000     7.305000000    -1.666000000
H     1.682000000     6.565000000    -1.773000000
H     2.854000000     7.047000000    -0.945000000
O    -0.187000000     5.549000000     1.896000000
H    -1.138000000     5.659000000     1.881000000
H    -0.009000000     4.910000000     1.206000000
O    -1.888000000    -5.523000000     5.480000000
H    -1.842000000    -5.115000000     6.344000000
H    -1.781000000    -4.796000000     4.866000000
O    -3.811000000    -3.204000000     1.151000000
H    -4.039000000    -2.664000000     0.394000000
H    -3.334000000    -3.947000000     0.780000000
O    -4.401000000     1.167000000     3.881000000
H    -3.798000000     1.387000000     4.591000000
H    -5.068000000     1.853000000     3.911000000
O     1.240000000    -1.204000000     3.454000000
H     0.475000000    -1.461000000     2.939000000
H     1.738000000    -2.014000000     3.563000000
O     3.772000000     6.040000000     0.338000000
H     4.624000000     5.786000000     0.693000000
H     3.174000000     5.356000000     0.639000000
O     5.235000000     5.514000000    -3.575000000
H     4.473000000     4.944000000    -3.472000000
H     4.966000000     6.158000000    -4.230000000
O    -1.142000000    -2.396000000    -5.114000000
H    -0.366000000    -2.850000000    -4.787000000
H    -1.706000000    -2.303000000    -4.346000000
O    -0.156000000     5.118000000    -2.331000000
H    -0.718000000     4.640000000    -2.940000000
H    -0.190000000     4.606000000    -1.522000000
O    -2.779000000    -2.663000000    -3.129000000
H    -3.693000000    -2.501000000    -3.363000000
H    -2.713000000    -3.615000000    -3.066000000
O    -2.635000000    -5.745000000     0.557000000
H    -2.372000000    -6.112000000     1.401000000
H    -2.273000000    -6.352000000    -0.090000000
O     4.400000000     1.898000000     0.764000000
H     4.216000000     1.904000000     1.703000000
H     3.892000000     2.630000000     0.415000000
O     0.825000000     0.541000000    -4.144000000
H     0.901000000    -0.059000000    -4.886000000
H     0.549000000    -0.014000000    -3.414000000
O    -2.336000000     0.015000000    -2.711000000
H    -2.435000000    -0.879000000    -3.037000000
H    -1.584000000    -0.026000000    -2.120000000
O    -3.109000000     7.330000000    -1.997000000
H    -2.264000000     6.988000000    -1.708000000
H    -3.103000000     8.247000000    -1.721000000
O    -1.712000000    -5.227000000    -2.956000000
H    -0.957000000    -4.952000000    -3.476000000
H    -1.332000000    -5.587000000    -2.155000000
O    -5.609000000    -6.118000000     1.526000000
H    -5.303000000    -5.911000000     2.409000000
H    -4.855000000    -5.940000000     0.964000000
O     6.517000000     1.761000000    -2.955000000
H     7.080000000     1.226000000    -3.514000000
H     5.675000000     1.781000000    -3.411000000
O     4.794000000    -2.698000000    -1.524000000
H     4.355000000    -2.588000000    -2.367000000
H     5.346000000    -1.921000000    -1.438000000
O     3.779000000     1.028000000    -3.586000000
H     2.837000000     1.164000000    -3.691000000
H     4.147000000     1.232000000    -4.446000000
O     4.092000000    -6.123000000    -1.226000000
H     5.010000000    -5.891000000    -1.366000000
H     3.750000000    -5.423000000    -0.669000000
O    -0.624000000     1.620000000     3.717000000
H    -0.532000000     1.599000000     4.670000000
H     0.191000000     2.016000000     3.407000000
O     2.574000000     1.044000000     2.579000000
H     2.182000000     0.333000000     3.086000000
H     2.112000000     1.024000000     1.741000000
O     2.940000000    -4.268000000    -4.053000000
H     3.838000000    -3.938000000    -4.077000000
H     3.026000000    -5.179000000    -3.774000000
O    -5.110000000    -2.784000000     3.572000000
H    -4.769000000    -2.685000000     2.683000000
H    -4.687000000    -3.576000000     3.904000000
O     5.747000000    -0.038000000    -1.024000000
H     5.607000000     0.094000000    -1.962000000
H     5.396000000     0.753000000    -0.616000000
O    -4.098000000     4.748000000     1.363000000
H    -4.229000000     3.851000000     1.670000000
H    -4.964000000     5.028000000     1.064000000
O    -0.798000000     7.877000000    -0.517000000
H    -0.120000000     7.240000000    -0.291000000
H    -0.641000000     8.613000000     0.074000000
O    -1.659000000    -3.329000000     3.662000000
H    -2.146000000    -3.028000000     2.895000000
H    -1.365000000    -2.524000000     4.089000000
O     2.212000000     4.354000000     2.676000000
H     2.462000000     3.792000000     1.943000000
H     1.443000000     4.830000000     2.362000000
O    -4.638000000     1.015000000    -1.452000000
H    -4.441000000     1.088000000    -0.518000000
H    -3.782000000     0.925000000    -1.870000000
O    -2.369000000     3.888000000    -0.772000000
H    -2.892000000     4.457000000    -0.207000000
H    -1.517000000     3.839000000    -0.339000000
O    -2.166000000    -0.686000000     3.941000000
H    -1.575000000     0.041000000     3.748000000
H    -3.020000000    -0.391000000     3.626000000
O     6.791000000     1.874000000     2.572000000
H     6.254000000     2.030000000     1.795000000
H     7.692000000     1.978000000     2.266000000
O     3.112000000     5.817000000     4.737000000
H     2.969000000     5.418000000     3.879000000
H     2.266000000     5.744000000     5.179000000
O     3.407000000    -2.931000000     1.326000000
H     3.447000000    -2.389000000     0.538000000
H     3.982000000    -2.488000000     1.950000000
O    -4.025000000     4.746000000    -2.742000000
H    -3.502000000     4.187000000    -2.168000000
H    -3.584000000     5.595000000    -2.716000000
O     3.312000000     3.637000000    -2.516000000
H     3.545000000     2.728000000    -2.704000000
H     3.429000000     3.724000000    -1.570000000
O    -4.903000000     1.806000000     1.204000000
H    -5.787000000     1.461000000     1.078000000
H    -4.670000000     1.547000000     2.096000000
O     6.241000000     4.724000000     1.858000000
H     6.368000000     4.067000000     1.173000000
H     7.125000000     4.919000000     2.169000000
O     0.634000000    -3.550000000    -3.257000000
H     0.706000000    -3.889000000    -2.365000000
H     1.524000000    -3.597000000    -3.605000000
O     3.048000000     2.525000000     4.948000000
H     2.795000000     2.339000000     4.044000000
H     2.324000000     3.044000000     5.298000000
O     0.859000000    -5.362000000    -1.050000000
H     0.973000000    -6.025000000    -1.731000000
H     1.315000000    -5.720000000    -0.288000000
O     0.445000000    -7.283000000    -2.867000000
H    -0.230000000    -7.546000000    -2.241000000
H     0.132000000    -7.613000000    -3.709000000
O     2.697000000    -3.385000000     4.319000000
H     3.167000000    -3.772000000     3.580000000
H     3.328000000    -3.398000000     5.038000000
O     2.635000000    -5.648000000     1.277000000
H     2.836000000    -4.714000000     1.334000000
H     3.198000000    -6.054000000     1.937000000
O     1.994000000     4.731000000    -4.719000000
H     1.210000000     4.181000000    -4.736000000
H     2.437000000     4.491000000    -3.906000000
