144
-2813.79692
O    -3.692000000     4.821000000     3.916000000
H    -3.508000000     3.938000000     4.236000000
H    -3.588000000     4.758000000     2.967000000
O     0.280000000    -3.790000000     2.228000000
H    -0.420000000    -4.439000000     2.289000000
H     0.904000000    -4.046000000     2.908000000
O     3.610000000    -1.445000000     3.586000000
H     2.770000000    -1.009000000     3.731000000
H     3.683000000    -1.514000000     2.634000000
O    -4.414000000     3.873000000    -1.010000000
H    -5.295000000     3.745000000    -1.361000000
H    -4.006000000     4.498000000    -1.609000000
O     2.358000000     3.043000000     2.901000000
H     3.106000000     2.543000000     3.229000000
H     2.338000000     2.856000000     1.963000000
O     6.006000000     2.929000000     1.319000000
H     5.592000000     2.400000000     2.001000000
H     6.226000000     2.302000000     0.630000000
O     2.629000000     0.010000000    -4.941000000
H     3.392000000     0.046000000    -5.518000000
H     2.999000000    -0.031000000    -4.059000000
O     7.229000000     0.780000000    -2.862000000
H     8.065000000     0.328000000    -2.749000000
H     7.016000000     0.664000000    -3.788000000
O    -3.560000000    -4.465000000    -2.329000000
H    -4.471000000    -4.171000000    -2.337000000
H    -3.612000000    -5.403000000    -2.147000000
O    -2.721000000     4.446000000     1.197000000
H    -1.870000000     4.007000000     1.199000000
H    -3.218000000     4.000000000     0.511000000
O    -5.076000000    -1.235000000    -4.131000000
H    -4.319000000    -1.722000000    -4.458000000
H    -5.684000000    -1.215000000    -4.870000000
O     6.070000000     4.908000000    -0.921000000
H     5.636000000     5.701000000    -0.608000000
H     5.893000000     4.254000000    -0.245000000
O    -6.247000000    -3.367000000    -2.399000000
H    -5.955000000    -2.541000000    -2.783000000
H    -7.027000000    -3.603000000    -2.901000000
O     3.920000000    -1.047000000    -2.702000000
H     4.532000000    -1.703000000    -2.366000000
H     4.024000000    -0.299000000    -2.113000000
O     0.971000000    -1.228000000     2.532000000
H     0.879000000    -0.631000000     1.789000000
H     0.646000000    -2.067000000     2.207000000
O    -2.956000000    -0.442000000     5.996000000
H    -2.142000000    -0.633000000     6.463000000
H    -3.099000000    -1.208000000     5.441000000
O     5.444000000     5.431000000     2.623000000
H     5.647000000     4.651000000     2.106000000
H     5.889000000     5.288000000     3.458000000
O     1.371000000     6.823000000    -2.581000000
H     1.218000000     6.786000000    -3.526000000
H     1.455000000     5.907000000    -2.317000000
O    -4.509000000     2.101000000     4.137000000
H    -4.570000000     1.156000000     4.002000000
H    -5.089000000     2.475000000     3.473000000
O     0.334000000     4.971000000    -1.126000000
H    -0.346000000     5.644000000    -1.077000000
H     0.688000000     4.925000000    -0.238000000
O     1.047000000     3.193000000    -3.983000000
H     0.516000000     2.420000000    -3.794000000
H     1.722000000     3.192000000    -3.305000000
O     4.437000000    -3.430000000    -1.293000000
H     4.886000000    -4.263000000    -1.145000000
H     3.515000000    -3.622000000    -1.125000000
O     0.629000000    -2.498000000    -4.304000000
H     1.562000000    -2.713000000    -4.274000000
H     0.568000000    -1.786000000    -4.940000000
O    -1.578000000    -1.177000000    -3.719000000
H    -0.909000000    -1.826000000    -3.499000000
H    -2.318000000    -1.393000000    -3.152000000
O     7.837000000    -0.311000000     1.467000000
H     7.388000000    -0.078000000     0.655000000
H     7.552000000     0.351000000     2.097000000
O    -3.404000000    -4.622000000     0.531000000
H    -3.579000000    -4.086000000     1.304000000
H    -4.219000000    -4.593000000     0.030000000
O    -6.457000000    -2.060000000     1.428000000
H    -6.229000000    -2.862000000     1.898000000
H    -7.324000000    -1.827000000     1.759000000
O     2.302000000     7.145000000     1.398000000
H     1.679000000     6.473000000     1.676000000
H     2.993000000     6.659000000     0.949000000
O    -0.623000000    -4.392000000    -2.433000000
H    -0.195000000    -3.844000000    -3.090000000
H    -1.547000000    -4.146000000    -2.480000000
O     3.905000000    -1.656000000     0.972000000
H     4.260000000    -2.366000000     0.436000000
H     3.865000000    -0.906000000     0.378000000
O     3.623000000    -4.390000000     2.502000000
H     3.842000000    -3.460000000     2.566000000
H     2.930000000    -4.517000000     3.151000000
O     3.503000000     5.303000000    -0.115000000
H     3.546000000     5.210000000    -1.067000000
H     3.520000000     4.404000000     0.214000000
O     0.298000000     2.464000000     4.428000000
H    -0.126000000     3.321000000     4.467000000
H     1.138000000     2.631000000     3.999000000
O     3.822000000     2.937000000    -2.603000000
H     3.923000000     2.181000000    -2.025000000
H     4.485000000     3.559000000    -2.302000000
O    -5.039000000     0.754000000    -1.960000000
H    -4.851000000     0.096000000    -2.630000000
H    -5.935000000     1.034000000    -2.145000000
O    -2.381000000    -3.020000000     4.739000000
H    -1.530000000    -2.732000000     4.409000000
H    -2.309000000    -3.973000000     4.789000000
O    -2.584000000     2.818000000    -3.653000000
H    -3.182000000     2.348000000    -3.073000000
H    -1.723000000     2.708000000    -3.249000000
O     0.683000000     4.870000000     1.719000000
H     1.212000000     4.342000000     2.317000000
H     0.108000000     5.377000000     2.292000000
O    -0.493000000     1.116000000    -2.768000000
H    -0.559000000     0.268000000    -3.206000000
H    -0.364000000     0.900000000    -1.845000000
O    -5.203000000     1.643000000     0.734000000
H    -4.960000000     2.543000000     0.516000000
H    -5.125000000     1.167000000    -0.093000000
O     4.464000000     1.216000000     3.982000000
H     4.428000000     0.279000000     3.787000000
H     5.397000000     1.430000000     3.956000000
O    -4.662000000    -0.378000000     2.870000000
H    -5.253000000    -1.058000000     2.548000000
H    -4.630000000     0.267000000     2.163000000
O     0.726000000    -0.407000000     5.210000000
H     0.369000000    -1.014000000     4.561000000
H     0.474000000     0.460000000     4.892000000
O    -1.635000000    -6.760000000     0.214000000
H    -2.178000000    -5.977000000     0.307000000
H    -0.931000000    -6.640000000     0.851000000
O    -7.201000000     1.637000000     2.496000000
H    -6.557000000     1.246000000     1.906000000
H    -6.928000000     2.551000000     2.577000000
O     6.261000000     0.956000000    -0.378000000
H     5.340000000     0.754000000    -0.540000000
H     6.631000000     1.103000000    -1.248000000
O     1.570000000    -4.308000000    -0.640000000
H     0.724000000    -4.351000000    -1.087000000
H     1.390000000    -3.824000000     0.166000000
O    -4.727000000    -3.903000000     3.211000000
H    -5.103000000    -4.522000000     3.837000000
H    -4.034000000    -3.459000000     3.700000000
