144
-2847.21138
O    -2.261000000     5.906000000     3.924000000
H    -3.094000000     5.949000000     4.393000000
H    -2.449000000     5.375000000     3.150000000
O     0.821000000    -0.660000000     3.133000000
H     0.261000000    -0.056000000     3.619000000
H     0.372000000    -0.784000000     2.297000000
O     1.617000000     2.656000000     2.368000000
H     2.339000000     2.046000000     2.219000000
H     1.566000000     3.168000000     1.560000000
O     1.005000000     5.832000000     2.247000000
H     0.579000000     6.620000000     1.910000000
H     0.500000000     5.109000000     1.874000000
O     3.096000000     5.523000000    -0.138000000
H     2.268000000     5.043000000    -0.127000000
H     3.734000000     4.893000000    -0.471000000
O     2.290000000    -0.348000000    -4.573000000
H     2.801000000    -0.863000000    -3.949000000
H     2.764000000     0.480000000    -4.646000000
O    -0.444000000    -5.873000000     2.848000000
H    -0.372000000    -6.256000000     3.722000000
H    -0.590000000    -4.940000000     3.007000000
O     1.577000000     4.916000000    -6.274000000
H     1.363000000     5.037000000    -5.349000000
H     1.579000000     3.966000000    -6.396000000
O    -3.064000000     3.910000000     2.137000000
H    -2.422000000     4.291000000     1.539000000
H    -3.641000000     3.395000000     1.574000000
O    -2.223000000    -7.179000000     1.305000000
H    -1.522000000    -6.667000000     1.708000000
H    -1.954000000    -8.089000000     1.425000000
O    -2.035000000    -1.343000000    -3.523000000
H    -2.555000000    -1.320000000    -4.326000000
H    -1.153000000    -1.574000000    -3.815000000
O     0.149000000     2.092000000    -5.632000000
H    -0.166000000     2.730000000    -4.993000000
H     0.965000000     1.759000000    -5.257000000
O     3.892000000     2.335000000    -5.140000000
H     4.593000000     2.104000000    -4.530000000
H     3.656000000     3.232000000    -4.904000000
O     3.497000000     1.062000000     1.450000000
H     3.750000000     0.848000000     0.552000000
H     3.678000000     0.263000000     1.946000000
O     3.947000000     8.128000000    -0.185000000
H     3.744000000     7.193000000    -0.156000000
H     4.663000000     8.236000000     0.441000000
O     2.672000000    -3.417000000    -2.553000000
H     3.213000000    -3.777000000    -3.256000000
H     2.701000000    -4.082000000    -1.865000000
O    -6.603000000     1.478000000     3.127000000
H    -5.662000000     1.403000000     3.283000000
H    -6.916000000     2.057000000     3.822000000
O    -1.201000000     5.007000000     0.387000000
H    -1.482000000     5.521000000    -0.370000000
H    -0.549000000     4.401000000     0.035000000
O     4.138000000    -1.107000000    -2.529000000
H     3.488000000    -1.757000000    -2.264000000
H     4.971000000    -1.578000000    -2.507000000
O     0.180000000    -3.124000000    -3.958000000
H    -0.218000000    -3.902000000    -3.568000000
H     0.968000000    -2.972000000    -3.436000000
O    -3.223000000     0.443000000    -1.811000000
H    -2.696000000    -0.167000000    -2.327000000
H    -3.437000000    -0.041000000    -1.014000000
O     6.624000000     0.826000000     0.245000000
H     5.785000000     0.872000000    -0.214000000
H     6.396000000     0.565000000     1.137000000
O    -4.340000000    -5.377000000     2.357000000
H    -5.150000000    -5.789000000     2.055000000
H    -3.668000000    -5.704000000     1.760000000
O     5.165000000     3.850000000    -0.841000000
H     4.965000000     2.927000000    -1.001000000
H     6.089000000     3.938000000    -1.075000000
O    -2.782000000    -3.963000000    -2.489000000
H    -2.490000000    -3.076000000    -2.695000000
H    -3.672000000    -3.851000000    -2.154000000
O     4.386000000     1.359000000    -1.145000000
H     4.403000000     0.635000000    -1.771000000
H     3.573000000     1.825000000    -1.340000000
O     5.634000000    -3.673000000     0.167000000
H     6.310000000    -3.534000000     0.830000000
H     4.809000000    -3.525000000     0.630000000
O     2.130000000    -3.281000000     4.093000000
H     2.103000000    -2.333000000     4.225000000
H     2.133000000    -3.646000000     4.978000000
O     1.442000000     7.592000000    -1.687000000
H     1.899000000     7.511000000    -0.850000000
H     1.152000000     6.703000000    -1.889000000
O    -2.582000000     2.726000000     5.234000000
H    -2.675000000     3.554000000     4.765000000
H    -3.278000000     2.171000000     4.882000000
O     3.576000000     4.338000000    -3.336000000
H     3.141000000     3.784000000    -2.688000000
H     4.164000000     4.892000000    -2.822000000
O    -4.287000000    -0.768000000     0.499000000
H    -5.103000000    -0.999000000     0.055000000
H    -4.226000000    -1.388000000     1.226000000
O    -2.852000000    -1.524000000     4.008000000
H    -2.203000000    -2.200000000     4.202000000
H    -3.695000000    -1.949000000     4.166000000
O     0.667000000     4.210000000    -3.741000000
H    -0.135000000     4.452000000    -3.279000000
H     1.211000000     3.791000000    -3.075000000
O    -4.874000000     2.235000000    -2.838000000
H    -5.444000000     2.506000000    -2.119000000
H    -4.262000000     1.617000000    -2.438000000
O    -2.743000000    -6.581000000    -1.348000000
H    -2.755000000    -6.914000000    -0.451000000
H    -3.509000000    -6.009000000    -1.401000000
O    -1.660000000     2.471000000    -2.964000000
H    -2.024000000     2.088000000    -2.165000000
H    -0.975000000     1.859000000    -3.232000000
O     2.902000000    -3.528000000     1.376000000
H     2.547000000    -3.453000000     2.261000000
H     2.702000000    -4.427000000     1.113000000
O    -1.635000000     6.205000000    -2.159000000
H    -1.270000000     6.917000000    -2.685000000
H    -2.340000000     5.847000000    -2.697000000
O    -4.380000000     2.094000000     0.614000000
H    -5.200000000     2.252000000     0.146000000
H    -4.147000000     1.193000000     0.391000000
O     3.426000000     3.674000000     4.142000000
H     2.717000000     3.855000000     3.525000000
H     4.019000000     3.096000000     3.661000000
O    -3.902000000     1.105000000     3.564000000
H    -3.979000000     1.249000000     2.621000000
H    -3.471000000     0.254000000     3.641000000
O    -0.090000000     1.600000000     4.229000000
H    -0.834000000     2.196000000     4.315000000
H     0.485000000     2.026000000     3.593000000
O     2.322000000    -5.681000000    -1.069000000
H     2.127000000    -6.076000000    -0.220000000
H     1.494000000    -5.718000000    -1.547000000
O    -0.190000000    -5.384000000    -2.547000000
H    -1.035000000    -5.716000000    -2.244000000
H    -0.046000000    -5.821000000    -3.386000000
O     1.824000000    -6.679000000     1.375000000
H     2.397000000    -7.202000000     1.935000000
H     1.012000000    -6.597000000     1.874000000
O    -5.564000000    -2.495000000     2.397000000
H    -5.287000000    -3.400000000     2.541000000
H    -6.154000000    -2.307000000     3.127000000
O    -0.750000000    -3.597000000     4.496000000
H     0.159000000    -3.458000000     4.229000000
H    -0.722000000    -3.591000000     5.452000000
