144
-2817.88819
O    -5.578000000    -3.642000000    -3.765000000
H    -5.157000000    -2.939000000    -4.260000000
H    -5.887000000    -4.253000000    -4.433000000
O     5.419000000     2.220000000     4.471000000
H     4.777000000     2.720000000     3.968000000
H     4.904000000     1.777000000     5.144000000
O    -0.412000000    -3.434000000    -6.837000000
H    -0.144000000    -3.585000000    -5.930000000
H    -1.009000000    -4.156000000    -7.033000000
O     5.815000000     1.187000000     0.667000000
H     6.215000000     1.728000000    -0.013000000
H     4.910000000     1.496000000     0.717000000
O    -5.025000000    -2.571000000     2.571000000
H    -4.995000000    -1.686000000     2.206000000
H    -5.951000000    -2.722000000     2.759000000
O     2.687000000     3.376000000    -3.463000000
H     3.261000000     2.772000000    -2.992000000
H     3.083000000     3.456000000    -4.331000000
O     6.340000000    -0.307000000    -3.315000000
H     5.505000000    -0.176000000    -3.765000000
H     6.596000000    -1.201000000    -3.541000000
O    -2.278000000    -6.276000000     0.122000000
H    -2.689000000    -6.856000000    -0.519000000
H    -2.942000000    -5.612000000     0.305000000
O    -2.540000000     1.741000000     4.113000000
H    -2.156000000     0.889000000     4.319000000
H    -2.772000000     2.111000000     4.965000000
O     6.996000000     3.807000000     2.685000000
H     6.730000000     2.951000000     3.023000000
H     6.203000000     4.161000000     2.282000000
O    -1.592000000     4.774000000     0.173000000
H    -0.792000000     5.050000000    -0.274000000
H    -2.288000000     5.278000000    -0.249000000
O     3.104000000    -5.642000000    -0.799000000
H     3.339000000    -6.314000000    -1.439000000
H     2.335000000    -5.213000000    -1.175000000
O    -3.574000000    -4.798000000    -2.368000000
H    -4.273000000    -4.473000000    -2.936000000
H    -3.888000000    -4.624000000    -1.480000000
O    -2.730000000     1.834000000    -3.375000000
H    -3.189000000     2.659000000    -3.534000000
H    -1.829000000     2.095000000    -3.183000000
O     6.687000000    -0.495000000     2.548000000
H     6.499000000     0.138000000     1.855000000
H     7.231000000    -0.014000000     3.171000000
O    -4.485000000    -4.905000000     0.304000000
H    -4.695000000    -4.241000000     0.960000000
H    -5.290000000    -5.415000000     0.214000000
O    -3.136000000     3.540000000     1.992000000
H    -2.720000000     3.045000000     2.698000000
H    -2.407000000     3.909000000     1.495000000
O     6.058000000     3.090000000    -3.469000000
H     5.555000000     2.564000000    -2.848000000
H     5.876000000     3.996000000    -3.219000000
O     4.375000000     4.229000000     1.725000000
H     3.980000000     3.585000000     1.137000000
H     3.706000000     4.906000000     1.822000000
O    -0.538000000    -7.095000000     2.242000000
H    -1.138000000    -7.048000000     1.498000000
H    -0.011000000    -6.299000000     2.176000000
O    -1.965000000     5.311000000     4.613000000
H    -1.423000000     4.952000000     3.910000000
H    -2.453000000     4.559000000     4.948000000
O     4.333000000     1.439000000    -1.938000000
H     3.918000000     1.507000000    -1.079000000
H     4.812000000     0.611000000    -1.908000000
O    -4.280000000     5.672000000     3.120000000
H    -3.881000000     5.031000000     2.531000000
H    -3.582000000     5.902000000     3.733000000
O    -0.184000000     4.569000000     2.662000000
H    -0.604000000     5.076000000     1.968000000
H     0.209000000     3.823000000     2.210000000
O     0.173000000    -2.280000000     2.646000000
H     0.163000000    -3.183000000     2.327000000
H    -0.010000000    -1.750000000     1.870000000
O    -0.425000000    -4.174000000    -3.340000000
H    -0.550000000    -3.264000000    -3.609000000
H    -1.258000000    -4.420000000    -2.937000000
O    -0.124000000     3.209000000    -3.705000000
H     0.617000000     3.420000000    -3.137000000
H    -0.177000000     3.945000000    -4.314000000
O     1.589000000    -0.625000000     4.367000000
H     1.087000000    -1.362000000     4.021000000
H     2.249000000    -0.447000000     3.697000000
O    -3.314000000    -0.816000000    -3.823000000
H    -2.388000000    -0.988000000    -3.992000000
H    -3.365000000     0.134000000    -3.713000000
O     1.717000000     6.239000000     4.233000000
H     1.419000000     7.148000000     4.269000000
H     1.105000000     5.810000000     3.635000000
O    -5.067000000     0.884000000     3.757000000
H    -5.575000000     1.580000000     3.340000000
H    -4.155000000     1.141000000     3.624000000
O     5.159000000    -3.498000000    -0.295000000
H     5.985000000    -3.243000000     0.116000000
H     5.295000000    -4.406000000    -0.566000000
O     2.258000000     3.367000000     3.947000000
H     2.369000000     4.211000000     3.509000000
H     2.596000000     2.726000000     3.321000000
O     2.176000000     5.930000000     1.201000000
H     1.374000000     6.439000000     1.085000000
H     1.901000000     5.020000000     1.083000000
O    -5.423000000     1.920000000     0.921000000
H    -4.645000000     2.468000000     1.018000000
H    -5.825000000     2.216000000     0.104000000
O     3.469000000    -2.493000000     1.696000000
H     2.648000000    -2.949000000     1.514000000
H     4.050000000    -2.750000000     0.980000000
O     4.049000000     7.790000000     2.195000000
H     3.516000000     8.363000000     2.746000000
H     3.422000000     7.178000000     1.810000000
O     2.235000000     5.689000000    -1.799000000
H     2.570000000     4.857000000    -2.134000000
H     2.025000000     5.510000000    -0.882000000
O    -0.537000000    -1.556000000    -4.118000000
H     0.006000000    -1.421000000    -4.894000000
H    -0.105000000    -1.047000000    -3.432000000
O     1.654000000    -5.531000000    -3.903000000
H     2.426000000    -4.970000000    -3.972000000
H     0.937000000    -4.928000000    -3.706000000
O     1.151000000    -4.667000000     1.705000000
H     0.718000000    -4.794000000     0.861000000
H     2.056000000    -4.938000000     1.553000000
O    -6.235000000    -0.737000000     0.762000000
H    -5.787000000    -0.872000000    -0.073000000
H    -5.801000000     0.024000000     1.147000000
O    -1.427000000    -0.910000000     4.488000000
H    -0.807000000    -1.042000000     3.771000000
H    -2.151000000    -1.503000000     4.290000000
O     0.172000000    -5.418000000    -0.712000000
H    -0.663000000    -5.747000000    -0.380000000
H     0.043000000    -5.349000000    -1.658000000
O     3.982000000    -0.335000000     3.082000000
H     4.938000000    -0.281000000     3.092000000
H     3.795000000    -1.180000000     2.671000000
O     1.731000000    -0.047000000    -3.446000000
H     2.286000000    -0.688000000    -3.001000000
H     1.410000000     0.520000000    -2.745000000
O    -4.919000000    -0.143000000    -1.869000000
H    -4.375000000    -0.607000000    -2.506000000
H    -5.403000000     0.498000000    -2.390000000
O     3.647000000    -1.961000000    -2.398000000
H     4.265000000    -2.151000000    -1.692000000
H     3.850000000    -2.607000000    -3.075000000
