144
-2819.72573
O    -3.099000000    -2.993000000    -4.843000000
H    -2.264000000    -2.677000000    -4.497000000
H    -2.878000000    -3.364000000    -5.698000000
O    -2.049000000     2.960000000     4.391000000
H    -1.324000000     2.544000000     4.859000000
H    -2.561000000     3.388000000     5.077000000
O     7.274000000     1.775000000     3.404000000
H     6.512000000     2.265000000     3.094000000
H     7.930000000     1.893000000     2.716000000
O    -7.641000000     1.243000000     2.001000000
H    -6.773000000     0.871000000     1.842000000
H    -8.249000000     0.537000000     1.781000000
O    -7.027000000    -4.611000000    -1.133000000
H    -6.814000000    -5.496000000    -1.429000000
H    -6.223000000    -4.298000000    -0.718000000
O     8.040000000    -0.409000000    -0.379000000
H     8.433000000    -0.868000000    -1.121000000
H     7.104000000    -0.386000000    -0.579000000
O     0.896000000     2.372000000    -2.234000000
H     1.224000000     1.492000000    -2.421000000
H     0.299000000     2.252000000    -1.495000000
O     4.063000000    -2.658000000    -1.623000000
H     3.385000000    -2.531000000    -2.286000000
H     4.618000000    -3.352000000    -1.978000000
O    -2.994000000    -6.378000000     1.109000000
H    -3.158000000    -6.769000000     0.251000000
H    -3.676000000    -6.742000000     1.673000000
O    -2.826000000     3.782000000     1.726000000
H    -2.639000000     3.537000000     2.632000000
H    -1.977000000     4.044000000     1.369000000
O     1.817000000    -4.967000000    -2.494000000
H     2.552000000    -5.479000000    -2.157000000
H     1.067000000    -5.251000000    -1.970000000
O    -5.073000000    -1.011000000    -3.088000000
H    -4.352000000    -1.471000000    -3.518000000
H    -5.342000000    -0.344000000    -3.719000000
O     4.968000000     1.875000000    -3.666000000
H     4.792000000     2.609000000    -3.078000000
H     5.743000000     2.143000000    -4.160000000
O    -4.808000000     0.650000000     2.346000000
H    -5.249000000     1.037000000     3.102000000
H    -3.933000000     0.428000000     2.667000000
O     7.268000000     4.320000000     1.758000000
H     7.483000000     5.061000000     1.193000000
H     6.474000000     3.947000000     1.374000000
O    -3.923000000    -4.123000000    -0.473000000
H    -3.356000000    -4.749000000    -0.022000000
H    -3.975000000    -4.450000000    -1.371000000
O    -1.063000000     5.592000000     0.193000000
H    -0.270000000     5.500000000     0.721000000
H    -0.750000000     5.904000000    -0.656000000
O     7.501000000     2.711000000    -1.047000000
H     7.411000000     1.819000000    -0.713000000
H     6.703000000     3.156000000    -0.762000000
O    -0.653000000     6.342000000     4.219000000
H    -0.426000000     5.875000000     3.415000000
H    -0.434000000     5.730000000     4.922000000
O     5.425000000    -0.288000000    -0.951000000
H     4.706000000     0.254000000    -0.628000000
H     4.995000000    -1.053000000    -1.335000000
O     1.553000000     5.028000000     2.051000000
H     2.319000000     5.467000000     2.421000000
H     1.903000000     4.229000000     1.656000000
O     0.415000000    -2.236000000     1.782000000
H     1.309000000    -2.578000000     1.798000000
H     0.359000000    -1.750000000     0.959000000
O    -1.392000000    -1.027000000     6.298000000
H    -1.133000000    -0.823000000     5.399000000
H    -1.425000000    -1.983000000     6.326000000
O    -4.442000000    -4.779000000    -3.274000000
H    -4.100000000    -4.143000000    -3.901000000
H    -5.355000000    -4.905000000    -3.534000000
O     3.360000000     2.163000000     5.840000000
H     3.570000000     2.385000000     4.933000000
H     3.978000000     2.675000000     6.361000000
O    -0.374000000    -2.494000000    -5.195000000
H     0.344000000    -1.939000000    -5.500000000
H    -0.219000000    -3.340000000    -5.616000000
O    -3.320000000    -2.008000000     3.110000000
H    -4.112000000    -2.101000000     2.582000000
H    -2.850000000    -2.832000000     2.984000000
O     0.707000000     1.658000000    -5.958000000
H     0.857000000     1.321000000    -5.075000000
H     1.584000000     1.789000000    -6.317000000
O     4.218000000     5.784000000     2.196000000
H     4.940000000     5.684000000     1.576000000
H     4.442000000     6.566000000     2.701000000
O     2.335000000     7.073000000    -1.086000000
H     2.670000000     6.189000000    -1.235000000
H     3.051000000     7.529000000    -0.643000000
O    -5.509000000    -2.742000000     1.246000000
H    -4.868000000    -3.132000000     0.652000000
H    -5.870000000    -2.003000000     0.757000000
O    -7.772000000    -1.902000000    -2.255000000
H    -7.354000000    -2.697000000    -1.923000000
H    -7.129000000    -1.527000000    -2.857000000
O     5.881000000    -0.417000000     4.702000000
H     6.238000000     0.424000000     4.415000000
H     5.201000000    -0.620000000     4.059000000
O     4.451000000     3.134000000     3.361000000
H     4.516000000     4.088000000     3.312000000
H     3.792000000     2.905000000     2.705000000
O     5.034000000     3.527000000     0.271000000
H     4.759000000     3.848000000    -0.587000000
H     4.667000000     2.645000000     0.326000000
O    -0.179000000    -5.903000000    -0.859000000
H    -0.974000000    -6.303000000    -1.209000000
H     0.055000000    -6.451000000    -0.110000000
O    -4.313000000     2.338000000    -0.248000000
H    -4.613000000     1.449000000    -0.059000000
H    -3.848000000     2.607000000     0.545000000
O     2.972000000    -3.014000000     1.277000000
H     3.770000000    -3.527000000     1.400000000
H     3.090000000    -2.586000000     0.429000000
O    -3.220000000    -6.675000000    -1.623000000
H    -3.632000000    -6.333000000    -2.417000000
H    -3.276000000    -7.626000000    -1.715000000
O     2.858000000     4.309000000    -1.260000000
H     2.238000000     3.725000000    -1.697000000
H     3.073000000     3.861000000    -0.442000000
O    -5.690000000    -0.391000000    -0.653000000
H    -6.617000000    -0.628000000    -0.638000000
H    -5.435000000    -0.482000000    -1.571000000
O    -0.541000000    -0.813000000     3.605000000
H    -0.125000000    -1.352000000     2.932000000
H    -1.480000000    -0.930000000     3.460000000
O    -1.910000000    -4.490000000     2.804000000
H    -2.372000000    -5.018000000     2.152000000
H    -0.993000000    -4.523000000     2.531000000
O     0.521000000     1.385000000     5.132000000
H     0.450000000     0.717000000     4.450000000
H     1.459000000     1.568000000     5.191000000
O     5.117000000    -0.373000000     2.024000000
H     4.552000000     0.371000000     1.818000000
H     5.328000000    -0.757000000     1.173000000
O     2.544000000     0.637000000    -4.033000000
H     2.847000000    -0.250000000    -4.228000000
H     3.347000000     1.144000000    -3.916000000
O    -4.082000000     3.321000000    -3.006000000
H    -3.538000000     4.107000000    -3.049000000
H    -3.830000000     2.900000000    -2.184000000
O     2.247000000    -2.362000000    -3.654000000
H     2.077000000    -3.269000000    -3.400000000
H     1.378000000    -1.970000000    -3.739000000
