144
-2820.48155
O     6.675000000     4.086000000     3.480000000
H     5.850000000     3.606000000     3.410000000
H     6.476000000     4.956000000     3.134000000
O     7.328000000     4.171000000    -0.186000000
H     6.903000000     4.016000000    -1.029000000
H     7.078000000     3.419000000     0.351000000
O     5.388000000    -0.895000000    -0.919000000
H     5.922000000    -0.162000000    -1.225000000
H     4.646000000    -0.482000000    -0.476000000
O     4.155000000     1.770000000    -3.133000000
H     4.269000000     2.521000000    -2.551000000
H     4.992000000     1.307000000    -3.095000000
O     1.922000000     3.599000000     4.806000000
H     1.490000000     4.018000000     5.550000000
H     1.635000000     2.687000000     4.844000000
O     1.059000000    -2.020000000    -5.717000000
H     0.188000000    -1.625000000    -5.761000000
H     1.641000000    -1.294000000    -5.493000000
O    -7.806000000    -1.648000000    -1.019000000
H    -6.984000000    -2.067000000    -0.765000000
H    -7.641000000    -1.309000000    -1.898000000
O    -2.965000000    -1.893000000     3.706000000
H    -3.658000000    -1.236000000     3.631000000
H    -3.349000000    -2.586000000     4.242000000
O     1.206000000     4.172000000    -2.697000000
H     0.916000000     4.192000000    -3.609000000
H     1.000000000     3.286000000    -2.399000000
O    -4.810000000    -3.330000000    -3.430000000
H    -4.423000000    -3.956000000    -4.041000000
H    -4.600000000    -2.472000000    -3.800000000
O     4.535000000    -0.157000000     5.398000000
H     4.750000000    -0.401000000     4.498000000
H     3.598000000     0.037000000     5.376000000
O    -1.478000000    -1.222000000    -5.847000000
H    -1.446000000    -0.271000000    -5.740000000
H    -2.324000000    -1.475000000    -5.479000000
O    -1.914000000     1.823000000    -5.400000000
H    -1.126000000     1.662000000    -5.919000000
H    -1.750000000     2.661000000    -4.968000000
O    -5.313000000    -3.871000000     2.540000000
H    -5.410000000    -3.828000000     3.492000000
H    -4.397000000    -4.113000000     2.403000000
O    -0.118000000    -1.175000000     3.658000000
H    -1.041000000    -1.367000000     3.822000000
H     0.073000000    -1.608000000     2.825000000
O    -2.785000000    -5.104000000    -4.241000000
H    -2.575000000    -5.764000000    -4.901000000
H    -3.121000000    -5.606000000    -3.499000000
O    -5.102000000     1.612000000    -3.595000000
H    -4.271000000     2.069000000    -3.461000000
H    -5.331000000     1.794000000    -4.506000000
O    -5.511000000     2.595000000     2.050000000
H    -6.014000000     3.024000000     1.358000000
H    -4.734000000     2.255000000     1.607000000
O    -3.324000000    -4.731000000     0.178000000
H    -2.479000000    -4.594000000    -0.250000000
H    -3.279000000    -5.626000000     0.514000000
O    -3.487000000     3.426000000     3.733000000
H    -4.109000000     2.991000000     3.149000000
H    -3.036000000     4.058000000     3.174000000
O    -4.178000000    -0.807000000    -4.522000000
H    -4.738000000    -0.896000000    -5.292000000
H    -4.204000000     0.126000000    -4.312000000
O     3.992000000     4.057000000    -1.439000000
H     3.090000000     4.249000000    -1.698000000
H     3.923000000     3.768000000    -0.529000000
O    -0.969000000     3.803000000    -0.872000000
H    -0.424000000     4.590000000    -0.848000000
H    -0.343000000     3.081000000    -0.934000000
O     2.456000000     4.563000000     0.966000000
H     2.164000000     5.255000000     1.559000000
H     2.412000000     3.763000000     1.490000000
O    -0.525000000    -4.610000000    -1.366000000
H    -0.582000000    -4.371000000    -2.291000000
H     0.366000000    -4.369000000    -1.111000000
O    -2.908000000     3.385000000    -3.014000000
H    -2.208000000     3.300000000    -2.368000000
H    -2.723000000     4.212000000    -3.460000000
O    -5.384000000    -2.969000000    -0.743000000
H    -4.761000000    -3.526000000    -0.276000000
H    -5.148000000    -3.066000000    -1.665000000
O    -1.511000000     2.537000000     6.546000000
H    -2.112000000     3.238000000     6.797000000
H    -0.740000000     2.991000000     6.207000000
O     4.348000000    -3.200000000    -0.070000000
H     4.569000000    -3.158000000     0.861000000
H     4.866000000    -2.502000000    -0.471000000
O     3.340000000     5.826000000     4.270000000
H     3.086000000     4.903000000     4.287000000
H     4.038000000     5.869000000     3.617000000
O     6.548000000     1.872000000     5.520000000
H     5.860000000     1.283000000     5.829000000
H     6.148000000     2.347000000     4.792000000
O     0.284000000    -6.271000000     0.745000000
H     0.027000000    -5.862000000    -0.081000000
H    -0.413000000    -6.901000000     0.928000000
O     5.884000000     2.193000000     1.357000000
H     5.153000000     1.616000000     1.136000000
H     5.906000000     2.197000000     2.314000000
O    -7.539000000     0.513000000    -3.119000000
H    -7.845000000     0.810000000    -2.262000000
H    -6.701000000     0.959000000    -3.241000000
O     3.722000000    -3.294000000     3.157000000
H     4.076000000    -2.429000000     2.950000000
H     3.078000000    -3.459000000     2.469000000
O     4.935000000    -1.007000000     2.682000000
H     5.840000000    -0.965000000     2.371000000
H     4.491000000    -0.294000000     2.223000000
O     0.323000000     1.599000000    -2.469000000
H     0.159000000     0.943000000    -1.792000000
H     0.932000000     1.175000000    -3.073000000
O    -0.136000000    -3.670000000    -3.879000000
H     0.165000000    -3.007000000    -4.501000000
H    -1.043000000    -3.842000000    -4.133000000
O    -3.760000000     3.071000000    -0.010000000
H    -3.180000000     3.829000000    -0.080000000
H    -3.830000000     2.740000000    -0.906000000
O    -2.256000000     6.274000000     2.310000000
H    -1.940000000     7.043000000     2.783000000
H    -1.515000000     6.006000000     1.766000000
O     4.302000000     2.537000000     4.053000000
H     3.782000000     2.303000000     3.284000000
H     3.728000000     3.105000000     4.566000000
O    -5.303000000     0.186000000     3.536000000
H    -6.085000000    -0.203000000     3.147000000
H    -5.278000000     1.076000000     3.184000000
O     1.216000000    -2.920000000     1.813000000
H     0.904000000    -3.587000000     2.425000000
H     0.913000000    -3.221000000     0.957000000
O     1.462000000     0.988000000     4.487000000
H     0.849000000     0.303000000     4.220000000
H     1.786000000     1.353000000     3.664000000
O     2.186000000    -4.440000000    -1.183000000
H     2.225000000    -3.920000000    -1.986000000
H     2.781000000    -3.994000000    -0.580000000
O     3.784000000    -1.688000000    -2.923000000
H     4.381000000    -1.580000000    -2.183000000
H     4.105000000    -2.467000000    -3.378000000
O     6.650000000     1.146000000    -2.144000000
H     6.944000000     0.705000000    -2.940000000
H     7.456000000     1.332000000    -1.662000000
O     2.219000000     0.359000000    -4.102000000
H     2.803000000     1.033000000    -3.753000000
H     2.607000000    -0.467000000    -3.812000000
