144
-2808.77726
O    -4.298000000    -3.292000000    -6.157000000
H    -5.064000000    -2.886000000    -6.563000000
H    -4.223000000    -2.863000000    -5.305000000
O     4.271000000     2.222000000    -1.504000000
H     4.995000000     1.596000000    -1.519000000
H     3.869000000     2.103000000    -0.643000000
O     7.829000000     1.994000000     3.633000000
H     7.088000000     1.857000000     3.042000000
H     7.433000000     2.068000000     4.501000000
O     2.635000000     4.417000000    -0.435000000
H     3.293000000     4.204000000    -1.097000000
H     2.630000000     3.659000000     0.150000000
O     3.852000000    -1.562000000    -3.322000000
H     4.206000000    -1.248000000    -2.490000000
H     3.258000000    -0.867000000    -3.606000000
O     0.425000000     1.610000000    -4.881000000
H     0.243000000     1.655000000    -5.819000000
H     0.566000000     2.520000000    -4.619000000
O    -2.802000000     3.446000000     2.543000000
H    -2.397000000     2.578000000     2.560000000
H    -2.137000000     4.027000000     2.913000000
O     7.110000000    -1.685000000     1.733000000
H     7.120000000    -2.610000000     1.979000000
H     7.919000000    -1.560000000     1.238000000
O    -1.791000000    -1.808000000    -6.718000000
H    -2.392000000    -2.303000000    -6.160000000
H    -1.332000000    -2.477000000    -7.226000000
O     1.584000000    -0.622000000     3.925000000
H     1.013000000     0.112000000     3.698000000
H     2.448000000    -0.360000000     3.609000000
O    -5.399000000    -2.503000000    -1.823000000
H    -5.886000000    -3.077000000    -1.233000000
H    -5.776000000    -2.672000000    -2.687000000
O     5.969000000     4.361000000     0.066000000
H     5.998000000     5.094000000    -0.549000000
H     5.731000000     3.606000000    -0.473000000
O    -3.973000000    -4.141000000     0.231000000
H    -4.319000000    -4.728000000    -0.441000000
H    -3.158000000    -3.804000000    -0.141000000
O    -2.172000000    -1.285000000     3.536000000
H    -1.675000000    -1.829000000     2.925000000
H    -3.084000000    -1.538000000     3.395000000
O     2.387000000     6.157000000     1.903000000
H     2.677000000     5.650000000     1.145000000
H     1.647000000     5.662000000     2.254000000
O    -3.069000000    -5.418000000     3.890000000
H    -2.953000000    -6.368000000     3.928000000
H    -2.404000000    -5.120000000     3.271000000
O     4.512000000    -3.592000000     4.861000000
H     3.707000000    -4.107000000     4.817000000
H     4.322000000    -2.805000000     4.351000000
O    -3.346000000     4.452000000    -0.328000000
H    -3.115000000     4.032000000     0.501000000
H    -2.700000000     5.151000000    -0.429000000
O    -5.262000000     1.438000000     1.295000000
H    -5.882000000     2.159000000     1.183000000
H    -5.055000000     1.160000000     0.402000000
O     0.950000000     4.217000000    -4.535000000
H     0.116000000     4.669000000    -4.664000000
H     1.458000000     4.807000000    -3.979000000
O    -3.347000000    -2.189000000    -3.831000000
H    -3.906000000    -2.045000000    -3.068000000
H    -3.024000000    -3.084000000    -3.725000000
O    -0.453000000     5.766000000     0.268000000
H    -0.081000000     4.901000000     0.439000000
H     0.254000000     6.251000000    -0.159000000
O     0.564000000    -7.082000000     0.008000000
H     0.731000000    -6.344000000     0.595000000
H     0.694000000    -6.724000000    -0.870000000
O    -2.113000000    -4.299000000    -3.007000000
H    -1.407000000    -4.530000000    -2.403000000
H    -1.663000000    -3.995000000    -3.796000000
O    -1.278000000     1.220000000     2.285000000
H    -1.012000000     0.966000000     1.401000000
H    -1.241000000     0.408000000     2.789000000
O    -1.027000000     5.117000000     3.741000000
H    -0.356000000     4.574000000     3.327000000
H    -0.628000000     5.985000000     3.803000000
O    -5.394000000    -4.382000000     2.561000000
H    -4.680000000    -4.802000000     3.041000000
H    -5.127000000    -4.433000000     1.643000000
O     4.026000000     3.049000000     4.874000000
H     4.429000000     3.384000000     4.073000000
H     3.419000000     3.738000000     5.143000000
O     4.481000000    -1.250000000     3.479000000
H     4.128000000    -0.933000000     2.648000000
H     5.254000000    -1.758000000     3.233000000
O     1.095000000    -3.014000000     5.029000000
H     1.511000000    -2.204000000     4.733000000
H     0.446000000    -2.729000000     5.672000000
O     2.972000000    -3.903000000    -1.362000000
H     2.195000000    -3.351000000    -1.450000000
H     3.358000000    -3.914000000    -2.238000000
O     6.185000000     0.960000000     1.712000000
H     6.531000000     0.074000000     1.824000000
H     5.242000000     0.837000000     1.604000000
O    -1.433000000     5.629000000    -4.182000000
H    -2.097000000     4.940000000    -4.177000000
H    -1.932000000     6.445000000    -4.142000000
O     3.395000000    -5.795000000     0.604000000
H     3.572000000    -6.560000000     0.057000000
H     3.394000000    -5.058000000    -0.007000000
O    -7.388000000    -0.598000000     1.797000000
H    -6.605000000    -0.081000000     1.987000000
H    -8.055000000     0.052000000     1.572000000
O     4.840000000    -0.916000000    -0.815000000
H     4.634000000    -1.826000000    -0.602000000
H     4.778000000    -0.453000000     0.021000000
O    -4.615000000    -5.478000000    -2.357000000
H    -4.438000000    -6.411000000    -2.239000000
H    -3.751000000    -5.082000000    -2.470000000
O    -3.205000000     3.400000000    -4.285000000
H    -2.964000000     2.477000000    -4.207000000
H    -3.900000000     3.522000000    -3.637000000
O     0.558000000    -3.045000000    -2.560000000
H     0.769000000    -2.118000000    -2.669000000
H     0.324000000    -3.343000000    -3.439000000
O    -5.513000000     0.402000000    -1.496000000
H    -5.429000000    -0.494000000    -1.824000000
H    -6.456000000     0.535000000    -1.400000000
O    -5.299000000     3.195000000    -2.232000000
H    -5.374000000     2.249000000    -2.108000000
H    -4.748000000     3.489000000    -1.507000000
O     4.578000000     3.809000000     2.403000000
H     4.237000000     3.142000000     1.808000000
H     5.129000000     4.364000000     1.851000000
O    -0.657000000    -3.465000000     3.053000000
H    -0.309000000    -4.276000000     2.683000000
H    -0.090000000    -3.281000000     3.802000000
O    -4.597000000    -1.701000000     2.168000000
H    -4.621000000    -0.961000000     1.562000000
H    -4.867000000    -2.452000000     1.639000000
O     0.951000000    -5.502000000     2.476000000
H     0.756000000    -5.923000000     3.313000000
H     1.894000000    -5.616000000     2.364000000
O     1.107000000     3.942000000     2.815000000
H     1.347000000     3.494000000     2.004000000
H     1.144000000     3.260000000     3.485000000
O     1.354000000    -0.223000000    -2.942000000
H     0.914000000     0.406000000    -3.514000000
H     1.200000000     0.109000000    -2.057000000
O    -2.687000000     0.337000000    -4.831000000
H    -2.657000000    -0.536000000    -4.440000000
H    -1.800000000     0.483000000    -5.160000000
