144
-2813.16082
O     3.798000000     0.243000000    -0.684000000
H     3.381000000     1.104000000    -0.652000000
H     4.688000000     0.419000000    -0.991000000
O    -3.017000000     2.772000000     0.135000000
H    -3.314000000     2.115000000     0.765000000
H    -2.680000000     2.263000000    -0.602000000
O     3.549000000    -0.613000000     5.648000000
H     3.840000000     0.188000000     5.211000000
H     3.882000000    -1.321000000     5.096000000
O     4.836000000     3.181000000     1.076000000
H     3.951000000     2.862000000     1.253000000
H     5.400000000     2.644000000     1.633000000
O     2.144000000     4.832000000     2.862000000
H     2.395000000     4.131000000     2.261000000
H     1.867000000     4.378000000     3.658000000
O     3.028000000    -2.178000000    -1.941000000
H     3.095000000    -1.337000000    -1.489000000
H     3.818000000    -2.224000000    -2.480000000
O     2.058000000    -3.591000000    -5.152000000
H     2.490000000    -2.747000000    -5.284000000
H     2.723000000    -4.240000000    -5.383000000
O     3.923000000     0.135000000    -4.016000000
H     3.094000000    -0.120000000    -4.421000000
H     3.708000000     0.908000000    -3.494000000
O    -5.428000000    -2.411000000    -4.900000000
H    -4.636000000    -1.879000000    -4.977000000
H    -6.139000000    -1.774000000    -4.838000000
O     2.629000000     4.818000000    -0.635000000
H     2.729000000     4.027000000    -0.105000000
H     2.185000000     5.439000000    -0.057000000
O    -0.441000000     5.331000000    -2.063000000
H    -0.827000000     5.895000000    -2.733000000
H    -0.800000000     5.658000000    -1.238000000
O     0.896000000    -3.210000000     4.208000000
H     0.072000000    -3.527000000     3.839000000
H     0.678000000    -2.357000000     4.584000000
O    -1.690000000     5.332000000     0.657000000
H    -2.613000000     5.396000000     0.903000000
H    -1.550000000     4.400000000     0.491000000
O     6.305000000     5.370000000     0.774000000
H     5.690000000     4.661000000     0.962000000
H     6.975000000     4.965000000     0.224000000
O    -4.704000000    -3.503000000     0.221000000
H    -5.323000000    -3.474000000    -0.509000000
H    -3.917000000    -3.904000000    -0.149000000
O     1.307000000    -3.755000000     6.678000000
H     1.535000000    -3.874000000     5.756000000
H     0.461000000    -4.193000000     6.774000000
O     3.163000000     2.461000000    -2.998000000
H     3.458000000     2.876000000    -3.808000000
H     2.255000000     2.746000000    -2.900000000
O     6.902000000     1.799000000     2.272000000
H     7.401000000     1.794000000     3.089000000
H     7.566000000     1.848000000     1.585000000
O    -4.373000000     4.495000000    -1.611000000
H    -5.198000000     4.032000000    -1.759000000
H    -3.912000000     3.962000000    -0.963000000
O     5.436000000    -2.102000000     3.988000000
H     4.764000000    -1.990000000     3.315000000
H     5.901000000    -2.898000000     3.731000000
O     4.520000000     5.773000000    -2.476000000
H     3.845000000     5.238000000    -2.059000000
H     4.599000000     5.412000000    -3.359000000
O     1.749000000     7.004000000     1.103000000
H     2.666000000     6.915000000     0.842000000
H     1.715000000     6.640000000     1.987000000
O    -3.782000000     0.014000000     0.775000000
H    -3.682000000    -0.799000000     1.269000000
H    -4.492000000    -0.165000000     0.159000000
O    -2.268000000    -0.785000000     6.354000000
H    -2.213000000    -1.042000000     7.274000000
H    -1.432000000    -1.061000000     5.978000000
O    -3.057000000    -1.119000000    -5.352000000
H    -2.524000000    -0.625000000    -4.729000000
H    -2.483000000    -1.824000000    -5.653000000
O     3.747000000    -1.042000000     1.732000000
H     2.945000000    -0.656000000     2.086000000
H     3.836000000    -0.652000000     0.862000000
O    -1.382000000    -4.108000000     3.081000000
H    -1.384000000    -4.666000000     2.303000000
H    -2.165000000    -3.566000000     2.989000000
O    -0.324000000    -5.290000000    -2.739000000
H    -0.480000000    -4.571000000    -3.351000000
H     0.120000000    -5.958000000    -3.261000000
O     2.690000000     0.478000000     8.010000000
H     3.250000000     0.263000000     7.264000000
H     2.545000000    -0.359000000     8.450000000
O     2.135000000    -4.246000000    -0.749000000
H     1.553000000    -4.708000000    -1.351000000
H     2.278000000    -3.393000000    -1.160000000
O    -2.914000000    -6.428000000    -3.356000000
H    -2.273000000    -6.075000000    -2.739000000
H    -2.507000000    -7.226000000    -3.694000000
O     2.179000000    -5.763000000     4.142000000
H     1.830000000    -4.903000000     3.910000000
H     2.536000000    -6.106000000     3.323000000
O     4.181000000    -3.784000000     0.916000000
H     4.047000000    -2.841000000     1.003000000
H     3.491000000    -4.069000000     0.316000000
O    -1.229000000     1.169000000    -4.520000000
H    -2.124000000     1.377000000    -4.250000000
H    -0.722000000     1.946000000    -4.286000000
O     1.377000000    -0.791000000    -4.034000000
H     0.665000000    -0.341000000    -3.580000000
H     1.675000000    -1.456000000    -3.414000000
O    -3.470000000    -2.161000000     2.648000000
H    -3.879000000    -2.025000000     3.502000000
H    -4.130000000    -2.632000000     2.139000000
O     4.410000000     1.516000000     3.929000000
H     3.568000000     1.444000000     3.478000000
H     5.042000000     1.142000000     3.315000000
O     2.827000000    -6.284000000     1.589000000
H     2.412000000    -5.710000000     0.945000000
H     3.648000000    -6.552000000     1.177000000
O    -2.401000000    -4.533000000    -0.328000000
H    -1.645000000    -4.181000000    -0.798000000
H    -2.443000000    -5.451000000    -0.595000000
O     1.912000000     6.802000000    -2.709000000
H     1.268000000     6.095000000    -2.677000000
H     2.481000000     6.575000000    -3.445000000
O     4.357000000     4.156000000     5.046000000
H     3.559000000     4.370000000     4.563000000
H     4.611000000     3.293000000     4.719000000
O     0.896000000     2.993000000     4.820000000
H     1.166000000     2.363000000     4.152000000
H     1.570000000     2.928000000     5.497000000
O     0.735000000    -0.548000000     5.295000000
H     0.470000000    -0.116000000     4.483000000
H     1.685000000    -0.439000000     5.325000000
O    -5.370000000     0.555000000    -6.266000000
H    -5.898000000     0.377000000    -5.487000000
H    -4.468000000     0.405000000    -5.982000000
O    -3.560000000     2.564000000    -3.626000000
H    -4.228000000     2.864000000    -4.242000000
H    -3.449000000     3.294000000    -3.017000000
O     1.019000000     0.160000000    -6.770000000
H     0.848000000     0.241000000    -5.831000000
H     0.236000000    -0.264000000    -7.120000000
O     0.226000000     3.398000000    -4.008000000
H    -0.156000000     3.826000000    -3.242000000
H     0.137000000     4.041000000    -4.711000000
O    -0.622000000    -3.202000000    -4.989000000
H     0.332000000    -3.249000000    -4.925000000
H    -0.789000000    -2.962000000    -5.900000000
