144
-2795.85778
O    -3.589000000    -4.209000000     3.523000000
H    -3.030000000    -3.434000000     3.466000000
H    -3.917000000    -4.202000000     4.422000000
O     2.064000000    -6.548000000    -0.313000000
H     1.953000000    -7.150000000     0.423000000
H     2.581000000    -5.826000000     0.044000000
O    -5.616000000    -1.654000000     2.173000000
H    -4.917000000    -1.334000000     2.742000000
H    -5.319000000    -2.519000000     1.891000000
O     1.922000000     1.074000000     4.300000000
H     1.116000000     0.560000000     4.348000000
H     1.643000000     1.974000000     4.468000000
O    -2.751000000     4.746000000     0.778000000
H    -2.288000000     4.219000000     0.126000000
H    -3.243000000     4.109000000     1.296000000
O    -5.345000000    -0.784000000    -3.204000000
H    -4.808000000    -0.997000000    -3.967000000
H    -4.712000000    -0.582000000    -2.515000000
O     0.552000000     3.841000000    -0.599000000
H    -0.241000000     4.063000000    -1.087000000
H     0.458000000     2.909000000    -0.402000000
O    -1.610000000     4.116000000    -2.143000000
H    -2.239000000     3.528000000    -2.561000000
H    -2.118000000     4.899000000    -1.930000000
O     1.712000000     4.034000000     6.353000000
H     1.010000000     3.486000000     6.002000000
H     2.326000000     3.414000000     6.747000000
O    -1.661000000     4.957000000    -4.759000000
H    -1.433000000     4.276000000    -5.392000000
H    -1.423000000     4.584000000    -3.910000000
O    -3.906000000    -3.167000000    -0.316000000
H    -3.169000000    -3.636000000     0.076000000
H    -4.653000000    -3.754000000    -0.199000000
O    -0.847000000     3.265000000    -6.736000000
H    -0.576000000     3.722000000    -7.532000000
H    -0.346000000     2.450000000    -6.745000000
O    -0.115000000     4.750000000     1.982000000
H    -0.512000000     5.559000000     1.660000000
H     0.260000000     4.340000000     1.202000000
O     3.148000000    -1.977000000    -4.491000000
H     2.381000000    -1.941000000    -3.920000000
H     3.395000000    -1.061000000    -4.618000000
O    -3.698000000    -0.778000000    -1.094000000
H    -2.904000000    -0.390000000    -0.727000000
H    -3.749000000    -1.645000000    -0.691000000
O    -6.300000000     1.073000000     3.262000000
H    -6.931000000     1.604000000     2.777000000
H    -5.686000000     0.764000000     2.596000000
O     2.553000000     4.817000000    -4.154000000
H     2.638000000     4.420000000    -3.287000000
H     2.589000000     4.077000000    -4.761000000
O     4.180000000     2.476000000     2.958000000
H     3.412000000     1.931000000     2.790000000
H     4.745000000     2.336000000     2.198000000
O     0.297000000    -4.332000000    -1.422000000
H    -0.153000000    -4.500000000    -2.250000000
H     0.737000000    -5.157000000    -1.217000000
O     0.147000000    -1.429000000    -7.401000000
H     0.991000000    -0.980000000    -7.369000000
H     0.371000000    -2.357000000    -7.468000000
O    -4.386000000     2.015000000     5.000000000
H    -5.127000000     1.732000000     4.463000000
H    -3.808000000     2.472000000     4.388000000
O     2.880000000    -5.223000000    -4.751000000
H     3.262000000    -5.268000000    -3.874000000
H     3.105000000    -4.347000000    -5.065000000
O    -0.593000000     2.708000000     5.146000000
H    -1.360000000     2.698000000     5.718000000
H    -0.800000000     2.078000000     4.456000000
O    -3.339000000     0.069000000     7.593000000
H    -4.243000000     0.304000000     7.381000000
H    -3.420000000    -0.618000000     8.255000000
O    -1.308000000    -1.794000000     6.009000000
H    -0.771000000    -1.314000000     5.378000000
H    -1.838000000    -1.120000000     6.434000000
O     3.965000000    -4.998000000     0.929000000
H     4.005000000    -4.954000000     1.884000000
H     4.881000000    -4.985000000     0.650000000
O     4.916000000    -2.500000000    -1.479000000
H     4.867000000    -1.768000000    -2.093000000
H     5.808000000    -2.463000000    -1.133000000
O    -2.575000000     3.098000000     3.038000000
H    -1.780000000     3.604000000     3.207000000
H    -2.292000000     2.185000000     3.084000000
O     4.587000000     2.223000000    -4.098000000
H     4.101000000     2.759000000    -3.470000000
H     5.244000000     2.817000000    -4.461000000
O     2.305000000     2.704000000    -6.984000000
H     1.891000000     2.296000000    -7.745000000
H     2.745000000     3.478000000    -7.336000000
O     5.639000000    -0.512000000    -3.382000000
H     5.325000000    -0.327000000    -4.268000000
H     6.391000000     0.068000000    -3.269000000
O    -2.898000000    -3.888000000     6.513000000
H    -2.274000000    -3.190000000     6.312000000
H    -2.967000000    -3.880000000     7.467000000
O    -3.822000000     2.652000000    -2.923000000
H    -4.778000000     2.700000000    -2.928000000
H    -3.613000000     1.971000000    -3.563000000
O    -4.878000000     1.470000000     0.841000000
H    -5.147000000     0.795000000     0.218000000
H    -5.308000000     2.267000000     0.531000000
O     3.664000000     0.322000000    -5.667000000
H     3.100000000     0.955000000    -6.113000000
H     4.178000000     0.849000000    -5.055000000
O     4.464000000    -5.214000000    -2.491000000
H     5.413000000    -5.327000000    -2.433000000
H     4.281000000    -4.444000000    -1.953000000
O     3.364000000     1.590000000     0.378000000
H     4.296000000     1.452000000     0.213000000
H     3.076000000     0.788000000     0.813000000
O     4.195000000    -1.460000000     1.607000000
H     4.976000000    -1.336000000     2.145000000
H     4.511000000    -1.914000000     0.826000000
O     4.539000000    -1.830000000     5.914000000
H     3.780000000    -1.892000000     5.333000000
H     4.169000000    -1.603000000     6.767000000
O    -1.533000000    -4.743000000     0.440000000
H    -1.111000000    -4.204000000     1.109000000
H    -1.027000000    -4.576000000    -0.356000000
O     3.370000000    -4.742000000     4.161000000
H     3.005000000    -3.883000000     4.378000000
H     3.529000000    -5.155000000     5.009000000
O     5.118000000     0.834000000     5.047000000
H     5.114000000     1.410000000     4.282000000
H     4.352000000     0.272000000     4.927000000
O     3.426000000     3.628000000    -1.914000000
H     4.370000000     3.548000000    -1.775000000
H     3.035000000     3.131000000    -1.195000000
O     2.692000000    -1.856000000     4.109000000
H     3.209000000    -1.655000000     3.329000000
H     1.901000000    -1.326000000     4.015000000
O    -3.533000000    -1.200000000     3.859000000
H    -2.823000000    -0.567000000     3.962000000
H    -4.134000000    -1.007000000     4.579000000
O    -2.850000000     2.606000000     6.948000000
H    -2.940000000     1.780000000     7.423000000
H    -3.353000000     2.475000000     6.144000000
O    -2.692000000    -3.110000000    -2.839000000
H    -1.788000000    -3.023000000    -2.537000000
H    -3.209000000    -3.168000000    -2.035000000
O    -0.529000000    -3.325000000     2.627000000
H     0.198000000    -3.846000000     2.968000000
H    -0.302000000    -2.422000000     2.852000000
