144
-2809.13850
O     4.010000000    -0.775000000     2.952000000
H     3.306000000    -0.812000000     2.304000000
H     3.763000000    -1.425000000     3.610000000
O     0.690000000    -6.838000000     3.655000000
H     0.771000000    -6.920000000     4.605000000
H     0.566000000    -5.900000000     3.505000000
O    -3.583000000    -1.160000000     2.802000000
H    -2.642000000    -1.290000000     2.916000000
H    -3.986000000    -1.806000000     3.382000000
O     1.330000000     4.849000000     3.469000000
H     0.389000000     4.739000000     3.603000000
H     1.616000000     5.385000000     4.209000000
O    -2.818000000     1.996000000    -0.286000000
H    -2.281000000     1.713000000     0.454000000
H    -3.566000000     2.438000000     0.116000000
O    -1.311000000    -4.033000000    -1.706000000
H    -1.827000000    -4.697000000    -1.250000000
H    -1.250000000    -3.308000000    -1.084000000
O    -0.887000000     5.500000000    -3.172000000
H    -1.613000000     4.886000000    -3.279000000
H    -0.620000000     5.398000000    -2.258000000
O     3.954000000     1.001000000    -1.099000000
H     3.398000000     1.408000000    -0.435000000
H     4.278000000     1.734000000    -1.622000000
O    -4.361000000    -3.186000000     4.683000000
H    -4.651000000    -3.620000000     5.486000000
H    -4.912000000    -3.562000000     3.996000000
O    -0.409000000     6.253000000    -0.497000000
H    -1.170000000     6.125000000     0.070000000
H     0.338000000     5.996000000     0.043000000
O     5.960000000    -0.746000000    -2.286000000
H     5.354000000    -0.902000000    -1.562000000
H     5.716000000     0.117000000    -2.621000000
O    -1.486000000     0.673000000    -8.022000000
H    -1.377000000     0.548000000    -7.079000000
H    -1.096000000    -0.109000000    -8.414000000
O    -5.322000000    -0.184000000     5.507000000
H    -4.400000000    -0.439000000     5.538000000
H    -5.738000000    -0.858000000     4.969000000
O    -4.737000000    -1.592000000     0.240000000
H    -4.851000000    -2.540000000     0.303000000
H    -4.005000000    -1.399000000     0.825000000
O    -3.670000000    -0.079000000    -2.053000000
H    -3.204000000     0.591000000    -1.553000000
H    -4.117000000    -0.605000000    -1.390000000
O     0.101000000    -1.908000000     6.459000000
H    -0.598000000    -1.304000000     6.708000000
H     0.909000000    -1.418000000     6.615000000
O     1.959000000     5.854000000     0.872000000
H     2.470000000     6.608000000     1.167000000
H     1.946000000     5.264000000     1.626000000
O     3.647000000     3.311000000     3.595000000
H     2.900000000     3.825000000     3.288000000
H     4.413000000     3.814000000     3.317000000
O    -2.508000000    -6.018000000    -0.294000000
H    -2.660000000    -5.557000000     0.531000000
H    -1.990000000    -6.785000000    -0.048000000
O     2.719000000     1.850000000    -5.451000000
H     1.920000000     1.386000000    -5.699000000
H     3.294000000     1.760000000    -6.211000000
O     3.117000000    -2.910000000    -0.872000000
H     2.762000000    -2.070000000    -1.163000000
H     2.945000000    -3.508000000    -1.599000000
O    -1.364000000    -4.175000000     6.367000000
H    -0.995000000    -4.628000000     7.125000000
H    -0.757000000    -3.454000000     6.200000000
O    -1.286000000     4.645000000     3.782000000
H    -1.645000000     3.837000000     4.150000000
H    -1.699000000     4.720000000     2.922000000
O    -2.323000000     0.585000000     7.986000000
H    -2.325000000     0.289000000     7.076000000
H    -1.563000000     0.154000000     8.376000000
O    -3.314000000    -2.482000000    -5.288000000
H    -2.448000000    -2.860000000    -5.135000000
H    -3.870000000    -2.880000000    -4.619000000
O    -2.559000000    -1.120000000     5.542000000
H    -2.781000000    -2.051000000     5.568000000
H    -1.835000000    -1.064000000     4.919000000
O     2.512000000    -2.923000000     1.705000000
H     3.259000000    -3.331000000     2.143000000
H     2.709000000    -3.003000000     0.772000000
O     2.330000000     4.897000000    -2.234000000
H     1.885000000     4.557000000    -1.458000000
H     2.819000000     4.149000000    -2.576000000
O     4.386000000     2.792000000    -3.244000000
H     3.704000000     2.302000000    -3.703000000
H     5.194000000     2.565000000    -3.703000000
O     0.509000000     0.719000000     6.049000000
H     1.217000000     1.204000000     5.627000000
H     0.119000000     0.201000000     5.345000000
O     2.173000000     4.511000000    -6.806000000
H     2.270000000     4.169000000    -5.918000000
H     2.234000000     3.738000000    -7.368000000
O    -3.305000000     5.494000000    -0.899000000
H    -4.262000000     5.483000000    -0.904000000
H    -3.056000000     5.046000000    -1.708000000
O    -2.803000000     3.379000000    -2.697000000
H    -2.653000000     2.686000000    -2.054000000
H    -2.750000000     2.936000000    -3.544000000
O    -3.991000000     3.750000000     5.799000000
H    -3.317000000     3.221000000     5.372000000
H    -3.528000000     4.531000000     6.101000000
O    -0.964000000    -3.615000000    -4.641000000
H    -0.705000000    -3.780000000    -3.734000000
H    -0.149000000    -3.376000000    -5.083000000
O    -2.487000000     5.061000000     1.419000000
H    -3.263000000     4.621000000     1.766000000
H    -2.666000000     5.162000000     0.484000000
O     4.227000000    -2.252000000    -4.194000000
H     4.175000000    -3.207000000    -4.168000000
H     4.828000000    -2.026000000    -3.483000000
O     2.698000000     2.261000000     1.072000000
H     1.938000000     1.681000000     1.115000000
H     2.958000000     2.383000000     1.985000000
O     1.054000000     0.890000000     8.859000000
H     1.943000000     1.231000000     8.965000000
H     0.819000000     1.109000000     7.958000000
O     1.573000000    -2.767000000    -5.376000000
H     2.045000000    -3.452000000    -5.849000000
H     2.162000000    -2.520000000    -4.663000000
O    -2.166000000    -4.352000000     1.964000000
H    -2.051000000    -3.527000000     2.436000000
H    -2.232000000    -5.014000000     2.652000000
O     2.681000000    -2.901000000     5.250000000
H     1.926000000    -2.335000000     5.089000000
H     2.326000000    -3.640000000     5.744000000
O     0.819000000    -0.149000000    -6.440000000
H     1.052000000    -0.538000000    -7.283000000
H     1.078000000    -0.805000000    -5.793000000
O    -2.357000000     2.165000000     4.107000000
H    -2.933000000     2.105000000     3.345000000
H    -1.870000000     1.341000000     4.105000000
O     1.142000000    -4.599000000    -2.738000000
H     0.924000000    -5.335000000    -3.309000000
H     0.322000000    -4.395000000    -2.287000000
O    -1.810000000     2.638000000    -5.206000000
H    -1.898000000     1.687000000    -5.150000000
H    -0.906000000     2.779000000    -5.490000000
O    -2.310000000     0.129000000    -4.755000000
H    -2.641000000    -0.722000000    -5.040000000
H    -2.659000000     0.238000000    -3.870000000
O     0.657000000    -4.250000000     3.431000000
H     1.169000000    -3.971000000     2.672000000
H     0.055000000    -3.523000000     3.593000000
