144
-2796.23368
O    -2.535000000     3.320000000     1.437000000
H    -2.504000000     2.442000000     1.059000000
H    -2.890000000     3.190000000     2.316000000
O    -3.705000000    -2.316000000    -0.283000000
H    -4.543000000    -2.684000000    -0.564000000
H    -3.728000000    -2.370000000     0.673000000
O     5.047000000    -1.446000000     4.255000000
H     5.348000000    -1.763000000     5.107000000
H     4.304000000    -2.010000000     4.039000000
O     1.440000000     6.583000000     1.662000000
H     1.153000000     6.696000000     0.756000000
H     2.361000000     6.331000000     1.592000000
O    -5.840000000     0.245000000    -1.683000000
H    -4.917000000     0.029000000    -1.555000000
H    -5.866000000     0.695000000    -2.528000000
O    -1.827000000    -1.556000000    -7.106000000
H    -1.448000000    -0.739000000    -7.429000000
H    -1.074000000    -2.130000000    -6.965000000
O    -1.588000000     5.440000000     0.331000000
H    -2.371000000     5.521000000    -0.213000000
H    -1.627000000     4.547000000     0.676000000
O    -2.656000000     5.301000000    -2.308000000
H    -3.252000000     4.611000000    -2.017000000
H    -1.933000000     4.833000000    -2.726000000
O    -3.120000000    -4.821000000     1.546000000
H    -2.645000000    -4.218000000     2.118000000
H    -3.957000000    -4.960000000     1.988000000
O     0.039000000     4.080000000     2.749000000
H    -0.812000000     4.103000000     2.311000000
H     0.414000000     4.947000000     2.592000000
O    -3.303000000     0.563000000    -0.121000000
H    -3.461000000    -0.380000000    -0.077000000
H    -2.498000000     0.647000000    -0.631000000
O     5.008000000     3.030000000     2.576000000
H     5.925000000     3.212000000     2.374000000
H     4.901000000     2.098000000     2.383000000
O     0.202000000     4.824000000    -3.705000000
H     0.001000000     4.894000000    -4.638000000
H     1.121000000     4.560000000    -3.677000000
O     2.375000000     0.839000000     7.043000000
H     1.450000000     1.058000000     6.929000000
H     2.754000000     0.938000000     6.169000000
O     0.342000000    -4.232000000    -2.657000000
H    -0.490000000    -4.395000000    -2.213000000
H     0.990000000    -4.217000000    -1.953000000
O    -3.131000000    -1.038000000    -4.773000000
H    -2.985000000    -1.841000000    -4.272000000
H    -2.841000000    -1.254000000    -5.660000000
O     0.655000000    -2.493000000    -6.365000000
H     0.906000000    -3.099000000    -7.062000000
H     1.424000000    -2.449000000    -5.797000000
O    -2.666000000     0.302000000     3.743000000
H    -1.729000000     0.278000000     3.546000000
H    -2.840000000     1.215000000     3.972000000
O    -0.685000000    -6.400000000     5.234000000
H    -0.369000000    -5.505000000     5.356000000
H    -0.036000000    -6.807000000     4.659000000
O    -0.261000000     1.353000000     6.989000000
H    -1.156000000     1.634000000     7.182000000
H    -0.155000000     1.520000000     6.053000000
O     1.083000000     4.776000000     5.619000000
H     0.672000000     4.480000000     4.807000000
H     0.537000000     4.405000000     6.312000000
O    -0.910000000    -1.232000000     5.838000000
H    -0.424000000    -1.002000000     5.046000000
H    -1.182000000    -0.391000000     6.205000000
O     0.280000000     6.184000000    -1.374000000
H    -0.317000000     5.742000000    -0.770000000
H     0.204000000     5.689000000    -2.190000000
O    -2.690000000    -3.174000000    -3.422000000
H    -1.999000000    -3.231000000    -4.082000000
H    -2.280000000    -3.492000000    -2.618000000
O     2.505000000    -4.083000000     1.521000000
H     1.893000000    -3.659000000     2.121000000
H     3.298000000    -4.216000000     2.041000000
O     2.600000000    -3.306000000    -4.468000000
H     1.898000000    -3.443000000    -3.832000000
H     2.975000000    -4.177000000    -4.602000000
O     3.349000000    -1.195000000    -0.695000000
H     3.550000000    -0.850000000     0.175000000
H     2.856000000    -0.494000000    -1.122000000
O    -5.715000000    -1.748000000    -4.791000000
H    -4.892000000    -1.261000000    -4.758000000
H    -5.865000000    -2.027000000    -3.888000000
O    -0.283000000     1.832000000     4.408000000
H    -0.004000000     2.484000000     3.765000000
H     0.396000000     1.159000000     4.377000000
O     2.617000000     3.851000000    -3.129000000
H     2.902000000     4.006000000    -2.229000000
H     2.821000000     2.929000000    -3.290000000
O     1.670000000     1.106000000    -5.607000000
H     2.292000000     0.521000000    -5.175000000
H     2.067000000     1.974000000    -5.533000000
O    -4.463000000     3.101000000    -2.152000000
H    -4.840000000     3.260000000    -1.287000000
H    -5.127000000     2.588000000    -2.613000000
O    -5.711000000     1.639000000     1.422000000
H    -5.931000000     2.519000000     1.117000000
H    -4.831000000     1.481000000     1.081000000
O     2.258000000     0.603000000    -2.675000000
H     1.314000000     0.744000000    -2.747000000
H     2.451000000    -0.066000000    -3.331000000
O     4.998000000    -4.433000000     3.293000000
H     5.465000000    -4.914000000     3.977000000
H     5.690000000    -4.087000000     2.729000000
O     2.409000000    -3.664000000    -1.026000000
H     2.651000000    -2.748000000    -1.159000000
H     2.388000000    -3.771000000    -0.075000000
O     3.063000000     0.488000000     4.455000000
H     3.693000000    -0.223000000     4.338000000
H     2.220000000     0.105000000     4.211000000
O     0.059000000    -5.141000000     0.316000000
H     0.916000000    -4.820000000     0.596000000
H    -0.039000000    -5.981000000     0.765000000
O     5.391000000    -0.005000000     1.533000000
H     6.213000000    -0.436000000     1.300000000
H     5.012000000    -0.564000000     2.212000000
O     4.564000000     4.078000000    -0.916000000
H     5.216000000     3.452000000    -0.599000000
H     5.023000000     4.583000000    -1.586000000
O     2.735000000     4.969000000    -5.912000000
H     3.665000000     4.794000000    -6.057000000
H     2.548000000     4.575000000    -5.059000000
O    -4.015000000     1.500000000    -5.749000000
H    -3.269000000     1.003000000    -5.412000000
H    -3.867000000     1.542000000    -6.694000000
O     3.765000000     5.210000000     1.647000000
H     4.027000000     5.093000000     0.734000000
H     4.116000000     4.443000000     2.098000000
O     0.842000000    -3.325000000     5.896000000
H     0.162000000    -2.674000000     6.069000000
H     1.003000000    -3.259000000     4.955000000
O    -3.641000000    -1.776000000     2.354000000
H    -2.852000000    -2.261000000     2.599000000
H    -3.466000000    -0.878000000     2.636000000
O    -2.080000000    -4.044000000    -1.125000000
H    -1.510000000    -4.349000000    -0.419000000
H    -2.760000000    -3.537000000    -0.682000000
O    -4.971000000    -4.662000000    -3.204000000
H    -4.293000000    -3.987000000    -3.175000000
H    -5.358000000    -4.650000000    -2.328000000
O    -1.661000000    -3.379000000     3.299000000
H    -1.830000000    -3.596000000     4.216000000
H    -0.791000000    -2.980000000     3.304000000
