144
-2810.72924
O     0.278000000    -7.226000000    -1.759000000
H     0.378000000    -6.443000000    -1.217000000
H    -0.076000000    -7.886000000    -1.164000000
O    -4.265000000    -3.419000000     1.664000000
H    -3.329000000    -3.222000000     1.614000000
H    -4.474000000    -3.352000000     2.595000000
O    -3.570000000    -2.219000000     5.274000000
H    -4.165000000    -1.717000000     4.717000000
H    -3.764000000    -3.134000000     5.070000000
O     1.318000000     5.975000000    -3.911000000
H     0.494000000     5.800000000    -4.366000000
H     1.822000000     5.167000000    -4.009000000
O     3.873000000    -5.556000000     0.797000000
H     3.104000000    -6.098000000     0.620000000
H     4.278000000    -5.429000000    -0.061000000
O     5.152000000    -0.255000000     5.709000000
H     4.478000000     0.118000000     6.277000000
H     4.664000000    -0.685000000     5.007000000
O    -5.692000000    -2.734000000    -0.562000000
H    -5.222000000    -2.623000000    -1.388000000
H    -5.005000000    -2.880000000     0.088000000
O     5.418000000     4.652000000     1.601000000
H     5.345000000     3.739000000     1.878000000
H     5.592000000     5.135000000     2.409000000
O    -1.537000000    -2.743000000    -2.892000000
H    -1.024000000    -2.966000000    -3.668000000
H    -1.108000000    -3.214000000    -2.178000000
O     0.634000000    -7.974000000     2.509000000
H    -0.309000000    -8.133000000     2.501000000
H     0.784000000    -7.385000000     1.769000000
O    -3.314000000     2.950000000    -4.436000000
H    -3.660000000     2.291000000    -3.834000000
H    -3.033000000     2.451000000    -5.203000000
O     4.832000000    -0.513000000     1.832000000
H     5.494000000    -1.200000000     1.914000000
H     4.010000000    -0.943000000     2.069000000
O    -2.354000000    -5.492000000     0.048000000
H    -2.372000000    -4.584000000     0.353000000
H    -3.270000000    -5.700000000    -0.135000000
O     2.733000000     5.866000000    -1.608000000
H     2.020000000     5.933000000    -2.243000000
H     3.022000000     6.768000000    -1.475000000
O    -0.923000000     4.452000000     1.252000000
H    -0.719000000     3.517000000     1.271000000
H    -0.119000000     4.866000000     0.937000000
O     5.094000000     4.015000000    -4.134000000
H     4.835000000     4.923000000    -4.293000000
H     5.058000000     3.918000000    -3.183000000
O     1.402000000    -5.110000000     3.587000000
H     0.989000000    -4.552000000     2.927000000
H     1.658000000    -5.898000000     3.108000000
O    -2.515000000     1.210000000     4.252000000
H    -2.675000000     1.511000000     5.147000000
H    -3.128000000     0.486000000     4.129000000
O    -5.399000000    -5.515000000    -1.255000000
H    -6.150000000    -5.570000000    -1.847000000
H    -5.454000000    -4.636000000    -0.880000000
O     1.957000000     2.454000000     4.369000000
H     1.692000000     1.566000000     4.610000000
H     1.172000000     2.984000000     4.506000000
O     0.335000000     7.293000000     2.364000000
H     0.579000000     6.424000000     2.046000000
H     1.067000000     7.558000000     2.920000000
O    -4.387000000     1.109000000    -2.782000000
H    -4.131000000     1.725000000    -2.096000000
H    -5.260000000     0.813000000    -2.525000000
O    -2.355000000     1.638000000     1.493000000
H    -2.217000000     1.828000000     2.421000000
H    -1.830000000     0.855000000     1.327000000
O     4.728000000     4.009000000    -1.131000000
H     4.017000000     4.567000000    -1.448000000
H     4.967000000     4.383000000    -0.284000000
O     5.818000000    -2.641000000    -0.938000000
H     6.515000000    -2.531000000    -0.290000000
H     5.457000000    -1.761000000    -1.053000000
O     2.050000000     1.038000000    -4.688000000
H     2.185000000     0.441000000    -3.952000000
H     2.918000000     1.135000000    -5.080000000
O     0.847000000     1.452000000    -7.130000000
H     1.558000000     1.860000000    -7.624000000
H     1.267000000     1.122000000    -6.335000000
O     2.884000000    -2.763000000     0.568000000
H     1.994000000    -2.852000000     0.908000000
H     3.308000000    -3.592000000     0.786000000
O     1.454000000    -1.388000000    -2.875000000
H     0.819000000    -2.019000000    -3.215000000
H     1.037000000    -1.027000000    -2.092000000
O     5.589000000     1.404000000    -1.349000000
H     4.845000000     0.888000000    -1.038000000
H     5.296000000     2.313000000    -1.281000000
O     3.893000000    -4.384000000     4.892000000
H     4.501000000    -5.104000000     4.723000000
H     3.077000000    -4.655000000     4.471000000
O     3.639000000    -0.751000000    -1.372000000
H     3.424000000    -1.369000000    -0.674000000
H     2.917000000    -0.831000000    -1.994000000
O     1.528000000     5.052000000     0.776000000
H     2.275000000     4.626000000     1.197000000
H     1.814000000     5.201000000    -0.125000000
O    -1.074000000     4.846000000    -5.308000000
H    -1.638000000     5.618000000    -5.340000000
H    -1.605000000     4.179000000    -4.873000000
O     3.261000000    -1.499000000     4.046000000
H     2.439000000    -1.350000000     4.513000000
H     3.405000000    -2.443000000     4.109000000
O     2.358000000     3.668000000    -4.892000000
H     3.232000000     3.453000000    -4.567000000
H     1.939000000     2.818000000    -5.030000000
O     4.654000000     1.996000000     2.608000000
H     3.916000000     1.836000000     3.196000000
H     4.745000000     1.183000000     2.111000000
O    -4.046000000     2.230000000    -0.412000000
H    -4.825000000     1.815000000    -0.041000000
H    -3.360000000     2.075000000     0.237000000
O    -4.828000000     4.853000000    -0.576000000
H    -4.237000000     4.100000000    -0.578000000
H    -5.626000000     4.531000000    -0.996000000
O     0.350000000     0.107000000     4.709000000
H    -0.550000000     0.427000000     4.652000000
H     0.262000000    -0.840000000     4.811000000
O    -0.028000000    -5.782000000     6.073000000
H     0.628000000    -5.346000000     5.529000000
H    -0.858000000    -5.615000000     5.627000000
O    -2.650000000     4.454000000     3.390000000
H    -2.819000000     5.386000000     3.530000000
H    -2.279000000     4.407000000     2.509000000
O    -4.043000000    -1.918000000    -2.397000000
H    -3.995000000    -0.967000000    -2.495000000
H    -3.131000000    -2.206000000    -2.405000000
O    -4.147000000    -2.843000000    -5.069000000
H    -4.735000000    -3.589000000    -4.951000000
H    -4.136000000    -2.409000000    -4.216000000
O     0.404000000    -5.831000000     0.823000000
H    -0.474000000    -6.113000000     0.565000000
H     0.301000000    -4.908000000     1.053000000
O     0.685000000    -4.063000000    -1.511000000
H     1.335000000    -3.412000000    -1.246000000
H     0.766000000    -4.107000000    -2.463000000
O    -1.757000000    -4.768000000     3.747000000
H    -2.291000000    -5.563000000     3.734000000
H    -1.623000000    -4.554000000     2.824000000
O    -0.738000000    -2.412000000     4.633000000
H    -0.739000000    -3.131000000     4.000000000
H    -1.660000000    -2.174000000     4.726000000
