144
-2770.34404
O    -5.267000000    -1.621000000     4.034000000
H    -6.171000000    -1.739000000     3.740000000
H    -4.759000000    -2.228000000     3.496000000
O    -3.931000000    -3.352000000     2.502000000
H    -2.995000000    -3.161000000     2.444000000
H    -4.172000000    -3.637000000     1.621000000
O     4.407000000     6.537000000     0.728000000
H     4.190000000     5.806000000     0.149000000
H     3.563000000     6.938000000     0.935000000
O     1.141000000    -0.228000000    -7.177000000
H     0.404000000    -0.024000000    -7.752000000
H     0.770000000    -0.205000000    -6.295000000
O     4.442000000     0.084000000     4.571000000
H     4.529000000     0.674000000     3.823000000
H     3.924000000    -0.649000000     4.239000000
O    -5.029000000    -4.057000000    -0.081000000
H    -5.441000000    -4.892000000    -0.302000000
H    -4.159000000    -4.108000000    -0.477000000
O    -1.337000000     5.458000000    -2.091000000
H    -0.583000000     5.181000000    -2.612000000
H    -2.025000000     4.832000000    -2.315000000
O    -3.955000000     2.015000000     1.993000000
H    -4.757000000     1.982000000     1.471000000
H    -3.541000000     1.163000000     1.850000000
O     4.170000000     5.971000000    -2.297000000
H     3.472000000     5.368000000    -2.041000000
H     4.882000000     5.403000000    -2.589000000
O    -0.326000000    -0.016000000    -4.701000000
H    -0.838000000     0.789000000    -4.776000000
H    -0.264000000    -0.173000000    -3.759000000
O     1.922000000    -7.915000000     2.669000000
H     1.745000000    -7.775000000     1.739000000
H     1.160000000    -8.401000000     2.986000000
O     4.255000000     3.764000000    -0.071000000
H     4.270000000     2.864000000    -0.397000000
H     4.087000000     3.676000000     0.867000000
O    -2.029000000    -3.189000000    -2.990000000
H    -1.646000000    -3.136000000    -2.115000000
H    -2.688000000    -2.496000000    -3.006000000
O    -2.601000000    -0.123000000     3.393000000
H    -3.198000000     0.053000000     4.120000000
H    -3.027000000    -0.823000000     2.897000000
O    -2.128000000     4.872000000    -5.602000000
H    -2.543000000     4.480000000    -4.833000000
H    -2.769000000     5.507000000    -5.922000000
O     4.968000000    -4.057000000     2.130000000
H     5.777000000    -3.822000000     2.584000000
H     5.064000000    -4.990000000     1.937000000
O     0.322000000     3.145000000     2.655000000
H     0.091000000     2.220000000     2.742000000
H    -0.420000000     3.535000000     2.194000000
O     2.706000000     4.156000000    -5.735000000
H     3.359000000     3.600000000    -5.311000000
H     2.669000000     3.837000000    -6.637000000
O     2.697000000    -4.216000000     0.424000000
H     1.942000000    -3.961000000     0.955000000
H     3.450000000    -3.846000000     0.885000000
O    -6.182000000    -2.193000000    -2.810000000
H    -5.270000000    -1.923000000    -2.694000000
H    -6.640000000    -1.389000000    -3.054000000
O    -4.258000000     1.668000000    -2.799000000
H    -4.709000000     1.702000000    -1.955000000
H    -4.955000000     1.515000000    -3.437000000
O    -0.059000000     0.153000000     4.592000000
H     0.135000000    -0.612000000     5.134000000
H    -0.944000000    -0.007000000     4.261000000
O    -2.505000000    -7.191000000     3.043000000
H    -3.408000000    -7.498000000     3.123000000
H    -1.986000000    -7.851000000     3.502000000
O     0.822000000    -5.627000000    -1.332000000
H     1.635000000    -5.256000000    -0.990000000
H     0.297000000    -5.812000000    -0.554000000
O     1.723000000    -4.981000000     3.670000000
H     1.665000000    -5.744000000     3.095000000
H     1.173000000    -4.321000000     3.247000000
O    -0.530000000     2.762000000    -5.896000000
H    -0.788000000     3.614000000    -6.250000000
H     0.231000000     2.952000000    -5.347000000
O     3.684000000    -1.546000000    -0.810000000
H     3.144000000    -2.228000000    -0.410000000
H     4.221000000    -2.011000000    -1.451000000
O    -3.783000000     4.344000000    -0.578000000
H    -4.103000000     5.048000000    -0.014000000
H    -4.576000000     3.934000000    -0.924000000
O     2.451000000     1.393000000    -3.779000000
H     2.548000000     0.539000000    -4.201000000
H     3.248000000     1.867000000    -4.015000000
O    -5.907000000     2.534000000    -0.836000000
H    -6.052000000     1.710000000    -0.371000000
H    -6.786000000     2.860000000    -1.026000000
O     4.827000000    -0.883000000     1.522000000
H     4.455000000    -1.227000000     0.710000000
H     5.096000000    -1.661000000     2.010000000
O     3.961000000     1.424000000    -1.381000000
H     3.252000000     1.288000000    -2.009000000
H     4.109000000     0.561000000    -0.994000000
O     0.953000000     4.674000000    -3.622000000
H     1.411000000     3.900000000    -3.950000000
H     1.491000000     5.411000000    -3.911000000
O    -6.940000000    -2.305000000     0.468000000
H    -7.330000000    -2.591000000     1.294000000
H    -6.205000000    -2.902000000     0.330000000
O     2.866000000     3.708000000     3.130000000
H     2.040000000     3.235000000     3.020000000
H     2.659000000     4.409000000     3.748000000
O    -0.318000000     6.229000000     0.562000000
H    -0.480000000     5.973000000    -0.346000000
H    -1.033000000     5.825000000     1.055000000
O     6.670000000     0.722000000    -2.517000000
H     6.571000000    -0.059000000    -3.061000000
H     5.781000000     0.927000000    -2.229000000
O    -2.076000000     3.960000000     1.481000000
H    -2.450000000     4.298000000     0.667000000
H    -2.790000000     3.468000000     1.886000000
O    -3.789000000     4.185000000    -3.611000000
H    -3.872000000     3.279000000    -3.313000000
H    -4.545000000     4.633000000    -3.230000000
O    -1.677000000    -4.832000000     4.147000000
H    -1.380000000    -4.273000000     3.429000000
H    -1.799000000    -5.692000000     3.746000000
O    -3.403000000    -0.870000000    -3.765000000
H    -3.421000000    -0.131000000    -3.157000000
H    -2.968000000    -0.526000000    -4.546000000
O    -2.256000000    -4.338000000    -0.421000000
H    -2.126000000    -5.283000000    -0.504000000
H    -1.814000000    -4.107000000     0.396000000
O     0.996000000    -1.880000000    -2.161000000
H     1.759000000    -1.433000000    -1.794000000
H     0.258000000    -1.558000000    -1.642000000
O    -2.816000000    -3.015000000     5.926000000
H    -3.744000000    -2.963000000     5.694000000
H    -2.418000000    -3.515000000     5.214000000
O    -5.002000000    -5.020000000     4.543000000
H    -4.138000000    -5.007000000     4.130000000
H    -5.617000000    -4.964000000     3.812000000
O     2.992000000    -2.173000000     3.799000000
H     2.198000000    -2.138000000     3.265000000
H     3.358000000    -3.041000000     3.628000000
O     0.522000000    -2.656000000     5.745000000
H     0.891000000    -2.893000000     4.894000000
H     0.673000000    -3.424000000     6.295000000
O    -0.473000000    -7.015000000     0.874000000
H    -0.828000000    -6.698000000     1.704000000
H    -1.138000000    -7.621000000     0.545000000
