144
-2842.38663
O     2.074000000     5.742000000    -4.410000000
H     2.449000000     6.285000000    -3.716000000
H     2.434000000     6.105000000    -5.219000000
O    -1.679000000     0.797000000    -4.837000000
H    -2.499000000     0.460000000    -5.198000000
H    -1.900000000     1.671000000    -4.515000000
O     1.170000000    -6.872000000     4.014000000
H     0.877000000    -6.685000000     4.906000000
H     1.600000000    -6.067000000     3.728000000
O    -4.427000000     3.176000000    -1.113000000
H    -4.382000000     2.878000000    -2.021000000
H    -3.875000000     3.958000000    -1.090000000
O     0.697000000    -6.072000000    -1.228000000
H     0.587000000    -5.641000000    -0.380000000
H     1.615000000    -6.342000000    -1.241000000
O    -5.175000000    -2.742000000     1.102000000
H    -4.358000000    -2.540000000     1.557000000
H    -5.096000000    -2.298000000     0.258000000
O    -4.695000000    -3.995000000     3.968000000
H    -4.661000000    -4.899000000     3.653000000
H    -4.045000000    -3.533000000     3.439000000
O    -2.772000000    -3.470000000    -5.253000000
H    -1.887000000    -3.115000000    -5.331000000
H    -2.901000000    -3.587000000    -4.311000000
O     0.807000000    -3.679000000    -2.933000000
H     0.180000000    -4.236000000    -2.472000000
H     0.282000000    -3.216000000    -3.586000000
O     4.197000000     1.408000000     0.494000000
H     3.759000000     1.098000000     1.286000000
H     3.890000000     0.819000000    -0.196000000
O     1.025000000     1.672000000    -4.642000000
H     0.914000000     2.280000000    -5.373000000
H     0.147000000     1.326000000    -4.484000000
O    -2.409000000     5.648000000     1.627000000
H    -1.512000000     5.449000000     1.895000000
H    -2.770000000     6.154000000     2.355000000
O     1.757000000    -3.992000000     3.742000000
H     1.440000000    -3.516000000     2.974000000
H     2.166000000    -3.322000000     4.288000000
O    -1.374000000    -4.560000000     5.974000000
H    -1.484000000    -3.740000000     5.492000000
H    -2.237000000    -4.974000000     5.941000000
O     0.023000000    -0.480000000     6.218000000
H    -0.013000000    -0.313000000     5.277000000
H    -0.578000000    -1.213000000     6.354000000
O    -4.450000000    -5.447000000    -0.605000000
H    -3.734000000    -5.863000000    -0.126000000
H    -4.804000000    -4.801000000     0.007000000
O    -0.265000000     4.767000000    -5.158000000
H    -0.546000000     5.529000000    -5.665000000
H     0.419000000     5.103000000    -4.579000000
O    -2.366000000    -3.979000000    -2.480000000
H    -2.016000000    -3.737000000    -1.623000000
H    -2.748000000    -4.846000000    -2.348000000
O     3.163000000    -0.497000000     5.446000000
H     3.062000000     0.125000000     6.166000000
H     2.954000000    -1.347000000     5.832000000
O     3.953000000     4.177000000    -0.859000000
H     4.546000000     4.149000000    -1.610000000
H     3.874000000     3.264000000    -0.582000000
O    -2.826000000    -2.829000000     2.281000000
H    -2.280000000    -3.321000000     2.895000000
H    -2.420000000    -2.978000000     1.427000000
O    -1.095000000     0.174000000     3.711000000
H    -1.306000000     1.106000000     3.762000000
H    -1.161000000    -0.037000000     2.780000000
O     3.376000000     6.754000000    -1.790000000
H     4.276000000     7.050000000    -1.925000000
H     3.465000000     5.905000000    -1.357000000
O    -5.187000000    -2.632000000    -1.979000000
H    -4.574000000    -3.339000000    -2.181000000
H    -4.848000000    -1.877000000    -2.460000000
O     3.338000000     3.386000000     4.261000000
H     3.416000000     3.590000000     3.329000000
H     4.002000000     3.933000000     4.682000000
O     4.191000000     4.806000000     2.005000000
H     4.108000000     4.681000000     1.060000000
H     5.128000000     4.937000000     2.149000000
O    -0.389000000     4.799000000     3.727000000
H    -0.459000000     3.912000000     4.079000000
H    -0.816000000     5.351000000     4.381000000
O    -4.236000000     1.664000000     1.071000000
H    -4.450000000     2.243000000     0.340000000
H    -3.875000000     0.880000000     0.657000000
O    -2.052000000     3.746000000    -3.385000000
H    -1.407000000     4.157000000    -3.961000000
H    -1.826000000     4.059000000    -2.509000000
O     2.928000000    -0.523000000    -0.818000000
H     2.105000000    -0.759000000    -0.391000000
H     2.837000000    -0.852000000    -1.712000000
O     2.512000000    -1.719000000    -3.322000000
H     2.100000000    -2.558000000    -3.120000000
H     2.230000000    -1.522000000    -4.216000000
O    -4.278000000    -0.259000000    -2.996000000
H    -5.140000000     0.046000000    -3.280000000
H    -3.764000000    -0.307000000    -3.802000000
O    -1.121000000    -5.235000000     2.902000000
H    -0.568000000    -4.713000000     2.321000000
H    -0.686000000    -5.189000000     3.753000000
O    -2.109000000    -6.247000000     0.385000000
H    -1.745000000    -5.377000000     0.546000000
H    -1.541000000    -6.840000000     0.877000000
O    -2.495000000     2.511000000     3.128000000
H    -2.894000000     3.325000000     3.436000000
H    -2.963000000     2.307000000     2.318000000
O    -2.707000000     5.464000000    -0.981000000
H    -1.933000000     5.920000000    -1.311000000
H    -2.727000000     5.672000000    -0.047000000
O     3.227000000    -4.939000000    -2.495000000
H     3.154000000    -4.584000000    -1.609000000
H     2.349000000    -4.845000000    -2.864000000
O    -3.415000000    -0.431000000    -0.385000000
H    -3.966000000    -0.377000000    -1.165000000
H    -2.599000000     0.000000000    -0.638000000
O     1.814000000     6.109000000     2.587000000
H     1.122000000     5.527000000     2.900000000
H     2.591000000     5.551000000     2.537000000
O    -0.118000000     5.941000000    -1.802000000
H     0.625000000     5.516000000    -2.230000000
H     0.153000000     6.853000000    -1.701000000
O    -0.452000000    -1.893000000    -5.102000000
H    -0.861000000    -1.073000000    -4.827000000
H     0.298000000    -1.621000000    -5.631000000
O     3.472000000     0.722000000     3.091000000
H     3.247000000     0.223000000     3.876000000
H     3.467000000     1.635000000     3.378000000
O     2.689000000    -4.116000000     0.247000000
H     1.909000000    -4.030000000     0.795000000
H     2.970000000    -5.023000000     0.371000000
O     4.222000000    -1.920000000     1.581000000
H     3.656000000    -1.160000000     1.718000000
H     3.724000000    -2.487000000     0.992000000
O    -2.237000000    -1.839000000     4.918000000
H    -1.797000000    -1.192000000     4.367000000
H    -3.058000000    -1.417000000     5.174000000
O    -0.084000000    -7.764000000     1.667000000
H     0.652000000    -8.375000000     1.645000000
H     0.125000000    -7.162000000     2.381000000
O    -3.654000000    -6.481000000     3.005000000
H    -3.396000000    -7.361000000     3.278000000
H    -2.830000000    -6.000000000     2.935000000
O     3.083000000     1.773000000    -2.880000000
H     2.893000000     1.035000000    -2.300000000
H     2.370000000     1.764000000    -3.519000000
