144
-2806.64682
O    -0.465000000     6.813000000    -3.499000000
H    -0.280000000     6.282000000    -2.724000000
H     0.269000000     7.425000000    -3.551000000
O    -0.832000000     1.736000000    -4.814000000
H    -1.043000000     2.240000000    -5.599000000
H    -1.028000000     2.328000000    -4.088000000
O     1.671000000    -3.004000000    -4.781000000
H     2.525000000    -2.780000000    -4.413000000
H     1.123000000    -2.240000000    -4.598000000
O     0.414000000    -5.938000000    -0.280000000
H     0.007000000    -5.087000000    -0.115000000
H     0.058000000    -6.510000000     0.400000000
O    -4.870000000     0.764000000     1.004000000
H    -4.577000000    -0.057000000     1.400000000
H    -4.486000000     0.758000000     0.127000000
O     3.675000000     6.208000000     1.461000000
H     4.511000000     5.819000000     1.202000000
H     3.059000000     5.475000000     1.456000000
O    -0.239000000    -1.202000000    -4.682000000
H    -0.508000000    -0.286000000    -4.620000000
H    -1.022000000    -1.699000000    -4.446000000
O     1.335000000    -3.322000000    -1.814000000
H     0.521000000    -3.114000000    -1.354000000
H     1.074000000    -3.423000000    -2.729000000
O     4.892000000     1.724000000     1.600000000
H     5.676000000     1.381000000     2.029000000
H     4.419000000     0.945000000     1.307000000
O     1.922000000     4.304000000    -5.926000000
H     1.471000000     5.028000000    -6.361000000
H     1.572000000     4.305000000    -5.035000000
O     0.413000000    -2.960000000     4.975000000
H     0.180000000    -3.037000000     4.049000000
H    -0.385000000    -3.201000000     5.444000000
O    -2.216000000    -2.807000000     6.088000000
H    -2.555000000    -2.013000000     5.674000000
H    -2.891000000    -3.467000000     5.931000000
O    -2.830000000    -6.433000000    -1.820000000
H    -3.405000000    -7.132000000    -1.510000000
H    -2.689000000    -5.879000000    -1.052000000
O    -0.491000000     1.462000000     7.017000000
H    -0.209000000     1.494000000     6.103000000
H    -0.417000000     0.539000000     7.259000000
O    -5.376000000    -4.836000000    -1.153000000
H    -4.607000000    -4.820000000    -0.583000000
H    -5.130000000    -4.294000000    -1.903000000
O    -1.649000000    -3.122000000    -3.605000000
H    -2.279000000    -3.361000000    -2.925000000
H    -1.571000000    -3.908000000    -4.146000000
O    -1.716000000    -1.218000000    -7.223000000
H    -0.977000000    -1.326000000    -6.625000000
H    -2.087000000    -2.096000000    -7.308000000
O     1.454000000    -7.607000000    -2.043000000
H     1.122000000    -6.961000000    -1.420000000
H     2.235000000    -7.200000000    -2.417000000
O     4.496000000     3.149000000    -2.073000000
H     4.363000000     2.809000000    -2.959000000
H     5.159000000     3.832000000    -2.176000000
O    -3.271000000    -1.438000000     2.317000000
H    -2.882000000    -1.440000000     3.191000000
H    -2.522000000    -1.482000000     1.722000000
O    -0.355000000     1.868000000     4.226000000
H    -0.538000000     2.606000000     3.645000000
H     0.500000000     1.546000000     3.942000000
O     1.489000000     5.652000000    -1.699000000
H     1.497000000     4.791000000    -1.280000000
H     2.367000000     6.002000000    -1.543000000
O     1.566000000     4.360000000     6.211000000
H     2.143000000     5.124000000     6.236000000
H     1.296000000     4.294000000     5.295000000
O    -4.491000000    -2.856000000    -3.123000000
H    -3.709000000    -2.629000000    -3.626000000
H    -5.186000000    -2.323000000    -3.509000000
O     3.094000000     3.330000000     0.381000000
H     3.415000000     3.252000000    -0.517000000
H     3.610000000     2.693000000     0.875000000
O     0.130000000     6.155000000     2.948000000
H     0.853000000     5.576000000     2.709000000
H    -0.565000000     5.564000000     3.237000000
O    -3.600000000     4.700000000     0.439000000
H    -3.315000000     5.614000000     0.411000000
H    -3.209000000     4.304000000    -0.340000000
O    -3.146000000     3.346000000    -3.546000000
H    -3.884000000     3.243000000    -2.945000000
H    -3.510000000     3.823000000    -4.292000000
O     3.319000000    -0.023000000    -0.013000000
H     2.455000000     0.137000000     0.368000000
H     3.190000000     0.088000000    -0.955000000
O    -1.868000000    -5.591000000    -4.222000000
H    -2.316000000    -5.875000000    -3.424000000
H    -2.206000000    -6.171000000    -4.905000000
O     2.652000000    -3.582000000     6.167000000
H     2.330000000    -4.408000000     6.528000000
H     1.984000000    -3.321000000     5.532000000
O     2.722000000    -0.196000000    -2.536000000
H     2.097000000    -0.917000000    -2.611000000
H     2.566000000     0.338000000    -3.315000000
O    -1.507000000    -4.990000000     3.566000000
H    -0.939000000    -4.433000000     3.033000000
H    -1.339000000    -5.877000000     3.248000000
O    -3.307000000    -4.597000000     0.625000000
H    -2.488000000    -4.155000000     0.401000000
H    -3.151000000    -4.962000000     1.496000000
O    -1.892000000     4.226000000     3.031000000
H    -2.419000000     4.332000000     3.823000000
H    -2.494000000     4.426000000     2.315000000
O     3.714000000    -2.552000000    -0.773000000
H     3.644000000    -1.672000000    -0.403000000
H     2.824000000    -2.766000000    -1.050000000
O    -3.733000000     0.286000000    -1.428000000
H    -4.106000000     0.277000000    -2.310000000
H    -2.793000000     0.404000000    -1.567000000
O     1.709000000     3.730000000     2.707000000
H     2.364000000     3.726000000     3.405000000
H     2.193000000     3.468000000     1.923000000
O     1.772000000     1.159000000    -4.580000000
H     0.972000000     1.683000000    -4.626000000
H     1.882000000     0.814000000    -5.466000000
O     2.131000000     0.126000000     4.596000000
H     2.374000000     0.316000000     5.502000000
H     1.690000000    -0.722000000     4.639000000
O     2.656000000    -3.538000000     2.513000000
H     1.717000000    -3.427000000     2.663000000
H     2.797000000    -4.483000000     2.568000000
O     4.621000000    -1.727000000     3.122000000
H     3.977000000    -1.045000000     3.316000000
H     4.096000000    -2.483000000     2.860000000
O    -2.926000000    -0.518000000     4.981000000
H    -2.273000000     0.168000000     5.121000000
H    -3.746000000    -0.134000000     5.291000000
O    -0.315000000    -1.242000000     7.217000000
H    -0.986000000    -1.853000000     6.913000000
H     0.501000000    -1.579000000     6.847000000
O     3.109000000    -5.066000000     0.083000000
H     2.203000000    -4.941000000    -0.200000000
H     3.552000000    -4.255000000    -0.166000000
O    -0.593000000    -7.993000000     1.777000000
H    -0.118000000    -8.362000000     2.522000000
H    -1.513000000    -8.175000000     1.966000000
O    -4.506000000    -5.214000000     3.915000000
H    -4.713000000    -5.169000000     4.849000000
H    -3.559000000    -5.079000000     3.873000000
O     4.084000000     2.872000000    -4.800000000
H     3.655000000     2.020000000    -4.723000000
H     3.417000000     3.443000000    -5.182000000
