144
-2858.74082
O    -3.886000000    -2.476000000     1.203000000
H    -3.157000000    -2.336000000     1.808000000
H    -4.620000000    -2.722000000     1.766000000
O     0.257000000    -6.285000000     6.496000000
H     0.504000000    -5.914000000     7.343000000
H    -0.128000000    -5.552000000     6.016000000
O    -2.258000000     4.698000000    -2.347000000
H    -2.822000000     5.325000000    -2.799000000
H    -1.865000000     4.180000000    -3.050000000
O     2.249000000    -0.169000000    -6.879000000
H     2.816000000    -0.940000000    -6.906000000
H     2.002000000    -0.086000000    -5.958000000
O    -2.033000000    -5.119000000     2.106000000
H    -2.342000000    -5.028000000     1.204000000
H    -1.376000000    -4.430000000     2.205000000
O    -4.165000000     1.045000000    -2.968000000
H    -4.976000000     0.537000000    -2.933000000
H    -4.134000000     1.384000000    -3.863000000
O    -3.756000000    -1.429000000    -1.389000000
H    -4.469000000    -1.995000000    -1.684000000
H    -3.614000000    -1.679000000    -0.476000000
O    -5.537000000    -3.313000000     3.236000000
H    -6.163000000    -2.810000000     3.757000000
H    -5.898000000    -4.199000000     3.218000000
O    -4.995000000     0.731000000     4.419000000
H    -4.843000000     0.868000000     3.484000000
H    -4.204000000     0.289000000     4.728000000
O     3.262000000    -3.858000000    -0.543000000
H     3.893000000    -4.557000000    -0.371000000
H     2.429000000    -4.203000000    -0.222000000
O     0.082000000     5.790000000    -1.677000000
H    -0.404000000     6.610000000    -1.592000000
H    -0.594000000     5.114000000    -1.716000000
O    -1.952000000    -7.657000000     3.030000000
H    -2.377000000    -7.521000000     3.877000000
H    -1.972000000    -6.797000000     2.611000000
O     5.431000000    -1.804000000     4.134000000
H     4.702000000    -2.350000000     3.840000000
H     5.749000000    -2.235000000     4.927000000
O     0.279000000     4.459000000     1.662000000
H     0.518000000     3.541000000     1.788000000
H     0.731000000     4.717000000     0.859000000
O    -1.152000000    -3.018000000    -1.184000000
H    -1.576000000    -3.837000000    -0.929000000
H    -1.864000000    -2.380000000    -1.219000000
O     3.646000000    -0.044000000     2.855000000
H     3.720000000    -0.184000000     1.911000000
H     4.249000000    -0.680000000     3.239000000
O    -2.034000000     1.897000000     6.550000000
H    -2.004000000     2.801000000     6.238000000
H    -1.606000000     1.391000000     5.860000000
O     2.589000000     2.517000000    -5.163000000
H     2.999000000     2.440000000    -6.024000000
H     3.160000000     3.113000000    -4.678000000
O    -0.408000000    -4.136000000     4.597000000
H    -0.377000000    -3.441000000     3.940000000
H    -1.335000000    -4.368000000     4.658000000
O    -4.223000000     1.845000000     1.786000000
H    -3.581000000     2.477000000     2.108000000
H    -4.269000000     2.009000000     0.844000000
O     1.366000000     2.098000000     2.060000000
H     2.197000000     1.826000000     2.451000000
H     1.192000000     1.439000000     1.387000000
O     4.823000000     3.530000000    -0.862000000
H     4.015000000     3.776000000    -0.412000000
H     5.218000000     2.864000000    -0.298000000
O    -2.651000000    -0.780000000     4.819000000
H    -2.637000000    -1.349000000     4.049000000
H    -2.018000000    -0.091000000     4.619000000
O     4.260000000    -1.024000000     0.296000000
H     4.989000000    -1.073000000    -0.322000000
H     3.645000000    -1.693000000    -0.006000000
O    -1.680000000     0.171000000    -3.240000000
H    -2.507000000     0.653000000    -3.256000000
H    -1.663000000    -0.246000000    -2.379000000
O    -3.442000000     3.021000000    -4.882000000
H    -3.865000000     3.518000000    -5.582000000
H    -2.598000000     2.761000000    -5.249000000
O     2.930000000    -3.256000000     3.200000000
H     2.245000000    -3.308000000     2.533000000
H     3.186000000    -4.166000000     3.353000000
O     1.251000000    -2.781000000    -2.271000000
H     0.391000000    -2.802000000    -1.852000000
H     1.854000000    -3.089000000    -1.594000000
O     4.666000000    -1.410000000    -2.792000000
H     4.591000000    -2.362000000    -2.728000000
H     3.909000000    -1.144000000    -3.314000000
O     5.922000000     2.007000000     1.193000000
H     6.557000000     2.121000000     1.900000000
H     5.298000000     1.366000000     1.533000000
O    -2.420000000     3.940000000     2.242000000
H    -1.530000000     4.160000000     1.964000000
H    -2.959000000     4.656000000     1.907000000
O    -2.280000000    -5.496000000    -0.584000000
H    -2.894000000    -5.669000000    -1.297000000
H    -1.696000000    -6.254000000    -0.581000000
O     1.645000000    -0.972000000     4.653000000
H     2.061000000    -1.752000000     4.285000000
H     2.045000000    -0.242000000     4.181000000
O    -4.373000000     2.855000000    -0.919000000
H    -4.068000000     2.166000000    -1.509000000
H    -3.947000000     3.651000000    -1.238000000
O    -0.487000000     3.843000000    -4.487000000
H    -0.370000000     2.975000000    -4.872000000
H     0.402000000     4.181000000    -4.381000000
O    -5.684000000    -0.563000000     0.903000000
H    -5.517000000     0.254000000     1.373000000
H    -4.856000000    -1.041000000     0.952000000
O    -7.015000000     3.801000000    -0.468000000
H    -7.444000000     3.156000000     0.095000000
H    -6.089000000     3.563000000    -0.442000000
O     2.423000000     5.100000000    -0.420000000
H     1.738000000     5.570000000    -0.895000000
H     3.203000000     5.646000000    -0.524000000
O     1.914000000     5.244000000    -4.016000000
H     2.824000000     5.506000000    -3.880000000
H     1.517000000     5.297000000    -3.147000000
O    -3.608000000    -2.052000000    -4.120000000
H    -4.529000000    -2.207000000    -3.911000000
H    -3.306000000    -1.450000000    -3.439000000
O     2.199000000    -0.308000000    -3.970000000
H     1.675000000     0.487000000    -4.066000000
H     1.740000000    -0.818000000    -3.302000000
O     1.045000000    -5.132000000     0.372000000
H     0.503000000    -4.622000000     0.974000000
H     0.580000000    -5.963000000     0.277000000
O     2.981000000    -6.089000000     2.708000000
H     3.889000000    -6.292000000     2.481000000
H     2.478000000    -6.343000000     1.934000000
O     0.218000000    -2.590000000     7.010000000
H     0.909000000    -1.983000000     6.744000000
H    -0.032000000    -3.038000000     6.202000000
O    -3.159000000    -4.367000000     4.435000000
H    -3.725000000    -3.597000000     4.383000000
H    -2.917000000    -4.548000000     3.526000000
O    -0.840000000     0.996000000     4.043000000
H    -0.669000000     1.830000000     3.605000000
H    -0.152000000     0.413000000     3.723000000
O    -0.950000000     1.100000000    -5.771000000
H    -0.514000000     0.497000000    -6.373000000
H    -0.933000000     0.650000000    -4.926000000
O     4.864000000     3.430000000    -3.851000000
H     4.621000000     3.116000000    -2.981000000
H     5.774000000     3.154000000    -3.960000000
