144
-2812.30569
O     0.291000000     1.729000000    -4.946000000
H     1.037000000     2.097000000    -4.472000000
H    -0.462000000     2.231000000    -4.636000000
O    -4.314000000     0.163000000    -5.975000000
H    -3.973000000    -0.394000000    -5.276000000
H    -5.157000000     0.474000000    -5.645000000
O     6.175000000    -2.500000000     2.976000000
H     6.550000000    -1.749000000     3.435000000
H     5.302000000    -2.601000000     3.356000000
O     3.544000000     3.855000000    -1.394000000
H     3.925000000     3.809000000    -0.517000000
H     2.713000000     4.313000000    -1.270000000
O    -4.495000000     5.126000000    -2.689000000
H    -5.209000000     5.452000000    -3.237000000
H    -3.820000000     5.802000000    -2.749000000
O     0.977000000     4.918000000    -0.987000000
H     0.972000000     5.577000000    -0.294000000
H     0.067000000     4.627000000    -1.047000000
O     4.360000000     0.189000000     5.529000000
H     5.245000000     0.157000000     5.165000000
H     4.238000000     1.104000000     5.781000000
O    -4.807000000    -2.812000000    -0.469000000
H    -4.345000000    -2.185000000    -1.025000000
H    -4.697000000    -2.472000000     0.419000000
O     0.577000000    -2.617000000    -2.464000000
H     0.361000000    -1.736000000    -2.156000000
H     0.020000000    -3.196000000    -1.944000000
O     0.489000000    -5.283000000     1.926000000
H     0.239000000    -4.888000000     2.761000000
H     1.241000000    -4.768000000     1.633000000
O     2.806000000     3.768000000     3.065000000
H     2.157000000     3.131000000     2.766000000
H     2.476000000     4.610000000     2.751000000
O     3.376000000    -2.269000000     4.556000000
H     2.508000000    -2.397000000     4.937000000
H     3.634000000    -1.391000000     4.838000000
O    -7.394000000    -1.780000000    -2.399000000
H    -6.697000000    -1.130000000    -2.305000000
H    -7.860000000    -1.753000000    -1.564000000
O    -4.260000000    -1.540000000     1.761000000
H    -3.759000000    -0.725000000     1.775000000
H    -4.035000000    -1.974000000     2.585000000
O    -1.584000000     4.429000000    -0.842000000
H    -1.759000000     4.808000000    -1.704000000
H    -2.052000000     3.594000000    -0.848000000
O     5.564000000    -2.650000000     0.095000000
H     5.582000000    -1.709000000    -0.080000000
H     5.441000000    -2.715000000     1.042000000
O    -3.228000000    -1.572000000    -4.312000000
H    -2.320000000    -1.376000000    -4.546000000
H    -3.252000000    -1.494000000    -3.358000000
O     1.912000000     4.115000000    -4.042000000
H     2.372000000     3.920000000    -3.226000000
H     2.578000000     4.512000000    -4.603000000
O    -7.425000000     1.628000000     0.049000000
H    -6.808000000     1.669000000     0.780000000
H    -6.871000000     1.551000000    -0.728000000
O     2.808000000    -1.337000000    -3.688000000
H     2.496000000    -2.120000000    -3.235000000
H     2.680000000    -1.529000000    -4.616000000
O    -0.362000000    -1.213000000    -5.054000000
H     0.287000000    -1.758000000    -4.609000000
H    -0.035000000    -0.320000000    -4.953000000
O    -4.440000000    -3.115000000     3.836000000
H    -5.331000000    -3.110000000     4.184000000
H    -3.904000000    -3.452000000     4.555000000
O    -2.252000000    -6.133000000     1.162000000
H    -1.375000000    -5.771000000     1.042000000
H    -2.211000000    -7.001000000     0.761000000
O     6.088000000     3.357000000    -2.785000000
H     5.224000000     3.718000000    -2.589000000
H     6.009000000     2.424000000    -2.585000000
O    -5.258000000     1.953000000     1.878000000
H    -4.608000000     1.337000000     2.216000000
H    -4.806000000     2.415000000     1.172000000
O    -0.230000000     0.463000000     5.960000000
H     0.424000000    -0.209000000     6.151000000
H    -0.554000000     0.733000000     6.819000000
O     2.829000000    -4.098000000     2.176000000
H     3.014000000    -3.178000000     2.365000000
H     3.291000000    -4.581000000     2.862000000
O     5.125000000     3.812000000     1.070000000
H     5.856000000     3.200000000     1.160000000
H     4.512000000     3.555000000     1.759000000
O    -0.183000000     6.116000000    -3.446000000
H     0.345000000     6.580000000    -4.096000000
H     0.429000000     5.508000000    -3.031000000
O    -3.226000000    -5.375000000    -2.108000000
H    -4.048000000    -5.116000000    -2.525000000
H    -3.380000000    -5.243000000    -1.173000000
O     3.048000000     1.429000000    -3.805000000
H     3.091000000     1.568000000    -2.859000000
H     3.161000000     0.484000000    -3.913000000
O     0.851000000    -2.219000000     5.625000000
H     0.495000000    -2.523000000     6.459000000
H     0.333000000    -2.676000000     4.962000000
O    -0.827000000    -4.098000000     4.135000000
H    -1.419000000    -3.958000000     3.396000000
H    -1.364000000    -3.921000000     4.908000000
O    -2.285000000    -0.937000000     4.736000000
H    -1.454000000    -0.541000000     4.997000000
H    -2.549000000    -1.463000000     5.491000000
O    -5.622000000    -4.572000000    -2.775000000
H    -5.440000000    -3.739000000    -2.342000000
H    -6.249000000    -5.010000000    -2.200000000
O    -3.932000000     3.058000000    -0.179000000
H    -4.372000000     3.581000000    -0.849000000
H    -3.678000000     2.254000000    -0.633000000
O    -1.540000000     3.863000000    -6.733000000
H    -1.172000000     3.953000000    -5.855000000
H    -2.488000000     3.876000000    -6.598000000
O     0.414000000     2.457000000     3.988000000
H    -0.086000000     2.202000000     3.213000000
H    -0.110000000     2.144000000     4.726000000
O    -2.110000000     2.860000000    -3.576000000
H    -2.759000000     3.546000000    -3.418000000
H    -2.400000000     2.127000000    -3.034000000
O     0.610000000     4.718000000     5.236000000
H     0.840000000     3.884000000     4.826000000
H     0.054000000     5.156000000     4.591000000
O     2.520000000     2.309000000     6.718000000
H     2.415000000     3.216000000     7.005000000
H     2.417000000     2.346000000     5.767000000
O     6.453000000     1.285000000    -0.219000000
H     7.348000000     1.360000000     0.112000000
H     6.557000000     1.151000000    -1.161000000
O    -6.560000000     3.170000000    -2.246000000
H    -6.969000000     3.761000000    -1.614000000
H    -6.197000000     3.750000000    -2.915000000
O    -2.988000000     0.676000000     2.552000000
H    -2.821000000     0.230000000     3.383000000
H    -2.250000000     1.277000000     2.451000000
O    -5.760000000     0.392000000    -1.803000000
H    -4.933000000    -0.073000000    -1.678000000
H    -5.598000000     0.973000000    -2.546000000
O    -0.917000000     2.209000000     1.464000000
H    -1.493000000     2.773000000     0.948000000
H    -0.310000000     1.838000000     0.824000000
O    -7.086000000     0.280000000    -4.564000000
H    -7.270000000    -0.469000000    -3.998000000
H    -7.538000000     1.013000000    -4.146000000
O    -3.650000000    -3.929000000    -6.108000000
H    -3.466000000    -3.271000000    -6.778000000
H    -3.377000000    -3.518000000    -5.287000000
