144
-2844.14319
O     3.337000000    -4.416000000    -0.369000000
H     3.134000000    -3.811000000     0.345000000
H     2.705000000    -4.198000000    -1.054000000
O     2.016000000     0.354000000     3.109000000
H     1.240000000     0.130000000     2.595000000
H     1.686000000     0.919000000     3.807000000
O     5.803000000    -4.402000000    -1.666000000
H     6.481000000    -3.788000000    -1.381000000
H     5.025000000    -4.146000000    -1.170000000
O    -3.950000000    -2.554000000    -2.370000000
H    -4.076000000    -2.636000000    -1.425000000
H    -3.350000000    -1.814000000    -2.468000000
O    -3.022000000     0.489000000    -3.732000000
H    -3.691000000     0.174000000    -4.340000000
H    -3.089000000     1.443000000    -3.776000000
O    -2.893000000     0.007000000    -1.133000000
H    -2.810000000     0.346000000    -2.024000000
H    -1.999000000     0.008000000    -0.791000000
O     1.087000000     6.042000000     0.721000000
H     0.633000000     6.074000000     1.563000000
H     0.431000000     6.326000000     0.084000000
O    -0.619000000     5.994000000     2.979000000
H    -0.821000000     5.140000000     2.597000000
H    -0.775000000     5.880000000     3.917000000
O     2.868000000    -2.620000000    -6.408000000
H     2.160000000    -3.001000000    -6.928000000
H     2.824000000    -3.080000000    -5.570000000
O    -1.501000000    -6.924000000    -2.403000000
H    -1.966000000    -6.127000000    -2.656000000
H    -2.193000000    -7.572000000    -2.270000000
O     2.640000000    -3.066000000     1.821000000
H     2.079000000    -2.832000000     2.561000000
H     3.499000000    -2.712000000     2.051000000
O     0.799000000    -6.115000000    -1.162000000
H     0.008000000    -6.458000000    -1.578000000
H     0.728000000    -5.166000000    -1.259000000
O     2.320000000     5.032000000    -3.956000000
H     1.968000000     4.229000000    -4.338000000
H     3.233000000     4.824000000    -3.759000000
O    -3.422000000    -5.090000000    -3.102000000
H    -3.800000000    -4.226000000    -2.939000000
H    -3.890000000    -5.415000000    -3.872000000
O    -2.138000000    -6.897000000     0.318000000
H    -1.662000000    -6.480000000    -0.400000000
H    -1.796000000    -6.477000000     1.107000000
O     3.456000000     7.566000000    -0.137000000
H     2.704000000     7.041000000     0.137000000
H     3.991000000     6.967000000    -0.656000000
O    -3.661000000     3.129000000    -3.971000000
H    -3.200000000     3.521000000    -3.229000000
H    -4.045000000     3.874000000    -4.434000000
O    -0.151000000     3.156000000    -4.134000000
H    -0.676000000     3.927000000    -4.353000000
H     0.073000000     3.274000000    -3.211000000
O     0.948000000    -6.448000000     2.664000000
H     1.862000000    -6.173000000     2.737000000
H     0.644000000    -6.511000000     3.569000000
O    -4.921000000    -1.379000000     4.235000000
H    -4.393000000    -1.528000000     3.450000000
H    -4.281000000    -1.290000000     4.941000000
O    -1.584000000    -1.725000000     3.923000000
H    -1.952000000    -2.538000000     4.271000000
H    -1.893000000    -1.690000000     3.018000000
O     3.869000000     0.333000000    -3.024000000
H     3.045000000     0.320000000    -3.512000000
H     4.024000000     1.259000000    -2.841000000
O    -2.684000000    -4.077000000     4.138000000
H    -2.073000000    -4.482000000     3.523000000
H    -3.550000000    -4.301000000     3.797000000
O     4.822000000    -0.055000000     0.141000000
H     5.532000000    -0.368000000    -0.418000000
H     4.144000000     0.234000000    -0.471000000
O    -4.269000000     2.639000000     0.529000000
H    -4.437000000     1.753000000     0.208000000
H    -4.226000000     2.544000000     1.481000000
O    -3.677000000     6.060000000     3.207000000
H    -3.415000000     5.163000000     3.416000000
H    -3.506000000     6.147000000     2.269000000
O     5.026000000    -2.025000000    -3.585000000
H     4.481000000    -1.342000000    -3.195000000
H     4.438000000    -2.774000000    -3.684000000
O    -1.272000000     0.618000000     5.304000000
H    -1.963000000     0.622000000     5.967000000
H    -1.405000000    -0.200000000     4.825000000
O    -1.022000000    -3.300000000    -3.875000000
H    -0.237000000    -3.428000000    -3.344000000
H    -1.700000000    -3.805000000    -3.425000000
O     3.458000000    -6.133000000    -2.389000000
H     4.214000000    -5.724000000    -1.968000000
H     2.723000000    -5.932000000    -1.809000000
O    -3.469000000     5.146000000    -0.432000000
H    -4.238000000     5.416000000    -0.933000000
H    -3.694000000     4.278000000    -0.097000000
O    -5.340000000     0.004000000     0.155000000
H    -5.925000000    -0.732000000    -0.029000000
H    -4.666000000    -0.052000000    -0.522000000
O     0.122000000     4.057000000    -1.627000000
H    -0.094000000     4.985000000    -1.531000000
H     0.194000000     3.733000000    -0.729000000
O     0.452000000     2.683000000     4.616000000
H     1.120000000     2.870000000     5.276000000
H    -0.045000000     1.949000000     4.978000000
O    -2.611000000     3.200000000     3.581000000
H    -1.985000000     2.614000000     4.007000000
H    -3.358000000     3.228000000     4.179000000
O     1.628000000     0.905000000    -4.607000000
H     0.989000000     0.347000000    -5.050000000
H     1.183000000     1.747000000    -4.508000000
O     4.014000000    -0.080000000    -5.986000000
H     3.573000000    -0.862000000    -6.319000000
H     3.327000000     0.406000000    -5.530000000
O     4.247000000     2.851000000    -2.026000000
H     5.203000000     2.892000000    -2.004000000
H     3.962000000     3.641000000    -1.568000000
O     2.727000000    -3.523000000    -3.943000000
H     2.630000000    -4.459000000    -4.119000000
H     2.061000000    -3.334000000    -3.282000000
O     3.523000000     4.647000000     0.830000000
H     2.645000000     5.015000000     0.931000000
H     3.519000000     3.864000000     1.380000000
O    -3.231000000    -3.582000000     0.382000000
H    -2.451000000    -3.976000000    -0.009000000
H    -3.918000000    -4.236000000     0.259000000
O     3.532000000     2.741000000     2.702000000
H     3.325000000     3.017000000     3.595000000
H     2.931000000     2.016000000     2.531000000
O     1.211000000    -2.212000000     3.831000000
H     0.264000000    -2.073000000     3.797000000
H     1.463000000    -1.924000000     4.709000000
O     1.361000000    -8.324000000     0.461000000
H     1.206000000    -7.823000000     1.262000000
H     1.107000000    -7.731000000    -0.246000000
O    -1.097000000    -4.958000000     1.903000000
H    -0.872000000    -4.323000000     1.223000000
H    -0.259000000    -5.345000000     2.157000000
O    -1.211000000     6.502000000    -0.852000000
H    -1.491000000     7.412000000    -0.956000000
H    -2.027000000     6.009000000    -0.769000000
O    -3.399000000    -1.404000000     1.936000000
H    -3.923000000    -0.807000000     1.402000000
H    -3.324000000    -2.197000000     1.405000000
O    -0.536000000    -0.765000000    -4.992000000
H    -0.491000000    -1.511000000    -4.394000000
H    -1.430000000    -0.437000000    -4.899000000
