144
-2797.39214
O     3.760000000    -4.018000000     0.342000000
H     3.489000000    -4.891000000     0.057000000
H     2.940000000    -3.549000000     0.493000000
O    -5.296000000     0.844000000     3.564000000
H    -4.968000000     0.130000000     3.016000000
H    -5.216000000     1.623000000     3.014000000
O     2.184000000    -3.141000000     3.433000000
H     1.380000000    -2.808000000     3.830000000
H     2.043000000    -3.045000000     2.491000000
O    -2.556000000     4.196000000     3.814000000
H    -2.261000000     3.285000000     3.816000000
H    -2.869000000     4.344000000     2.921000000
O    -1.053000000    -6.486000000     5.240000000
H    -2.003000000    -6.594000000     5.292000000
H    -0.906000000    -6.061000000     4.395000000
O     0.568000000     0.913000000     3.045000000
H     1.457000000     1.153000000     3.304000000
H     0.593000000     0.897000000     2.088000000
O     3.569000000    -5.471000000     4.393000000
H     2.882000000    -5.009000000     3.913000000
H     4.383000000    -5.058000000     4.105000000
O     2.751000000    -3.151000000    -3.742000000
H     2.398000000    -4.024000000    -3.909000000
H     2.341000000    -2.881000000    -2.919000000
O     2.144000000    -6.762000000    -0.950000000
H     1.795000000    -7.620000000    -1.193000000
H     1.433000000    -6.151000000    -1.145000000
O    -0.925000000    -2.615000000    -1.934000000
H    -0.865000000    -1.744000000    -2.326000000
H    -1.721000000    -2.584000000    -1.403000000
O    -2.086000000     2.781000000    -5.202000000
H    -1.184000000     2.597000000    -4.941000000
H    -2.130000000     2.510000000    -6.119000000
O    -1.777000000    -0.274000000    -3.495000000
H    -2.045000000    -0.465000000    -4.394000000
H    -2.556000000     0.105000000    -3.088000000
O     0.586000000     3.056000000    -4.484000000
H     0.844000000     3.111000000    -5.404000000
H     0.759000000     3.930000000    -4.135000000
O    -2.844000000    -7.722000000    -1.683000000
H    -3.795000000    -7.622000000    -1.735000000
H    -2.542000000    -6.920000000    -1.256000000
O     2.212000000    -6.877000000     1.701000000
H     2.869000000    -7.502000000     2.008000000
H     2.174000000    -7.016000000     0.755000000
O    -2.725000000    -0.901000000     4.528000000
H    -3.046000000    -1.569000000     3.922000000
H    -1.787000000    -1.077000000     4.602000000
O    -4.837000000    -4.635000000     0.547000000
H    -5.237000000    -5.467000000     0.295000000
H    -5.478000000    -3.973000000     0.289000000
O     0.602000000    -4.648000000    -1.666000000
H    -0.004000000    -3.943000000    -1.892000000
H     0.764000000    -4.534000000    -0.730000000
O     3.063000000     0.697000000    -5.441000000
H     3.587000000     0.424000000    -4.688000000
H     2.163000000     0.479000000    -5.199000000
O    -4.237000000     0.730000000    -1.884000000
H    -5.054000000     0.796000000    -1.389000000
H    -4.045000000     1.629000000    -2.150000000
O    -1.265000000     5.571000000    -4.599000000
H    -1.919000000     4.916000000    -4.844000000
H    -1.615000000     5.973000000    -3.805000000
O     0.326000000     6.379000000     2.287000000
H     0.290000000     6.941000000     1.512000000
H    -0.133000000     5.581000000     2.026000000
O    -5.116000000    -1.765000000     2.367000000
H    -4.344000000    -2.248000000     2.663000000
H    -5.314000000    -2.134000000     1.507000000
O     0.798000000     0.245000000    -3.767000000
H     0.757000000     1.201000000    -3.801000000
H    -0.074000000    -0.022000000    -3.476000000
O    -3.028000000    -3.213000000     2.999000000
H    -2.258000000    -3.301000000     2.436000000
H    -3.299000000    -4.114000000     3.176000000
O     4.065000000     0.031000000     1.279000000
H     4.858000000    -0.183000000     1.769000000
H     3.487000000     0.440000000     1.924000000
O     4.926000000    -1.697000000    -0.655000000
H     4.620000000    -1.156000000     0.073000000
H     5.010000000    -2.575000000    -0.282000000
O    -5.494000000     2.830000000     1.731000000
H    -4.686000000     3.054000000     1.269000000
H    -5.937000000     2.211000000     1.151000000
O     4.194000000    -2.055000000     4.758000000
H     3.679000000    -2.543000000     4.115000000
H     3.580000000    -1.877000000     5.471000000
O     4.996000000     2.681000000     0.936000000
H     4.760000000     1.969000000     0.341000000
H     5.766000000     2.357000000     1.404000000
O    -1.846000000     4.962000000     0.947000000
H    -2.409000000     4.506000000     0.322000000
H    -2.046000000     5.889000000     0.818000000
O     4.341000000    -0.888000000    -3.374000000
H     3.865000000    -1.704000000    -3.534000000
H     4.325000000    -0.784000000    -2.423000000
O    -3.655000000    -7.437000000     1.702000000
H    -3.274000000    -6.972000000     0.957000000
H    -3.027000000    -7.306000000     2.412000000
O    -6.544000000     0.525000000    -0.266000000
H    -7.484000000     0.703000000    -0.286000000
H    -6.443000000    -0.159000000     0.395000000
O    -3.512000000     3.497000000    -2.751000000
H    -4.051000000     3.971000000    -3.384000000
H    -2.796000000     3.132000000    -3.271000000
O     5.459000000    -4.786000000     2.288000000
H     4.872000000    -4.452000000     1.610000000
H     5.757000000    -5.632000000     1.953000000
O     0.166000000    -1.559000000     4.348000000
H     0.647000000    -0.921000000     3.820000000
H     0.753000000    -1.759000000     5.076000000
O     1.200000000     5.616000000    -3.523000000
H     0.289000000     5.341000000    -3.628000000
H     1.143000000     6.535000000    -3.259000000
O    -1.484000000     1.540000000     4.492000000
H    -1.931000000     0.696000000     4.566000000
H    -0.677000000     1.343000000     4.017000000
O     3.681000000     5.728000000    -4.591000000
H     4.211000000     5.701000000    -3.794000000
H     2.778000000     5.769000000    -4.277000000
O     6.579000000     1.750000000    -2.449000000
H     6.707000000     0.866000000    -2.104000000
H     5.885000000     1.654000000    -3.101000000
O     3.419000000     6.659000000     0.858000000
H     3.977000000     6.034000000     1.320000000
H     2.799000000     6.114000000     0.373000000
O    -3.458000000    -3.896000000    -1.779000000
H    -2.767000000    -4.480000000    -2.090000000
H    -3.872000000    -4.376000000    -1.061000000
O     3.197000000     0.935000000     3.634000000
H     3.545000000     0.285000000     4.245000000
H     3.762000000     1.699000000     3.749000000
O    -0.257000000    -5.847000000     2.573000000
H     0.657000000    -6.129000000     2.597000000
H    -0.227000000    -4.965000000     2.203000000
O    -1.952000000    -5.666000000     0.133000000
H    -1.730000000    -4.766000000     0.373000000
H    -1.481000000    -6.206000000     0.768000000
O    -4.063000000     3.937000000    -0.216000000
H    -4.781000000     4.566000000    -0.298000000
H    -3.767000000     3.793000000    -1.115000000
O    -4.976000000    -1.931000000    -2.883000000
H    -4.585000000    -1.300000000    -2.279000000
H    -4.460000000    -2.728000000    -2.765000000
