144
-2802.48304
O     2.495000000    -5.929000000    -0.870000000
H     1.909000000    -6.419000000    -1.446000000
H     1.964000000    -5.196000000    -0.556000000
O     2.264000000    -3.840000000     2.640000000
H     1.695000000    -4.596000000     2.496000000
H     2.543000000    -3.580000000     1.762000000
O    -3.238000000     0.423000000     3.918000000
H    -3.982000000     0.225000000     3.350000000
H    -2.614000000    -0.283000000     3.752000000
O     0.852000000     4.888000000    -2.092000000
H     1.522000000     4.266000000    -2.375000000
H     0.071000000     4.641000000    -2.588000000
O     3.492000000    -0.379000000     3.589000000
H     3.424000000    -0.042000000     4.482000000
H     2.593000000    -0.369000000     3.259000000
O     5.051000000    -5.007000000    -2.846000000
H     4.716000000    -5.825000000    -2.478000000
H     5.136000000    -5.182000000    -3.783000000
O    -0.205000000    -7.713000000    -1.535000000
H    -0.124000000    -8.641000000    -1.755000000
H    -0.421000000    -7.707000000    -0.602000000
O    -3.832000000    -0.565000000    -4.542000000
H    -3.513000000    -1.012000000    -3.758000000
H    -4.758000000    -0.803000000    -4.594000000
O    -2.757000000     1.737000000    -3.165000000
H    -3.208000000     1.108000000    -3.727000000
H    -1.828000000     1.612000000    -3.363000000
O     1.288000000     3.005000000     4.619000000
H     1.136000000     2.199000000     4.126000000
H     2.235000000     3.028000000     4.755000000
O    -0.186000000    -2.647000000    -5.109000000
H     0.191000000    -1.784000000    -5.278000000
H     0.548000000    -3.171000000    -4.789000000
O    -2.002000000    -6.119000000    -2.879000000
H    -1.381000000    -6.754000000    -2.523000000
H    -1.678000000    -5.271000000    -2.576000000
O     1.432000000    -0.765000000    -3.168000000
H     1.987000000    -1.455000000    -3.531000000
H     2.022000000    -0.245000000    -2.622000000
O    -2.562000000    -2.933000000     2.546000000
H    -1.913000000    -3.372000000     1.995000000
H    -2.770000000    -3.573000000     3.227000000
O    -3.518000000     6.113000000    -2.297000000
H    -4.370000000     6.108000000    -2.732000000
H    -3.462000000     6.978000000    -1.891000000
O    -1.281000000    -3.603000000    -2.053000000
H    -0.504000000    -3.710000000    -1.506000000
H    -1.019000000    -2.969000000    -2.721000000
O     2.968000000     3.227000000    -2.686000000
H     2.661000000     3.593000000    -1.856000000
H     3.904000000     3.080000000    -2.551000000
O     1.643000000    -4.501000000    -4.651000000
H     1.826000000    -5.238000000    -5.233000000
H     2.484000000    -4.308000000    -4.236000000
O    -4.872000000     2.878000000    -0.274000000
H    -4.082000000     2.383000000    -0.487000000
H    -4.550000000     3.669000000     0.158000000
O    -1.596000000     4.343000000    -3.434000000
H    -2.018000000     3.497000000    -3.582000000
H    -2.309000000     4.922000000    -3.164000000
O     1.728000000     4.631000000     2.411000000
H     2.445000000     4.947000000     2.962000000
H     1.437000000     3.825000000     2.837000000
O    -0.498000000     5.729000000     0.219000000
H     0.025000000     5.769000000    -0.582000000
H    -0.012000000     5.138000000     0.794000000
O    -4.746000000    -0.702000000     1.888000000
H    -5.063000000    -0.641000000     0.986000000
H    -4.015000000    -1.317000000     1.844000000
O    -5.685000000     5.767000000     2.458000000
H    -4.929000000     5.378000000     2.018000000
H    -6.306000000     5.949000000     1.753000000
O    -1.755000000    -5.500000000     4.181000000
H    -1.472000000    -5.390000000     3.273000000
H    -0.958000000    -5.741000000     4.653000000
O     4.681000000    -1.814000000     1.149000000
H     4.293000000    -1.266000000     1.831000000
H     3.933000000    -2.129000000     0.640000000
O     4.842000000    -4.981000000     0.483000000
H     4.863000000    -4.038000000     0.644000000
H     3.994000000    -5.134000000     0.065000000
O    -0.683000000     8.185000000     0.840000000
H    -1.334000000     8.371000000     1.516000000
H    -0.782000000     7.249000000     0.663000000
O     0.240000000    -1.905000000     3.547000000
H     0.891000000    -2.571000000     3.327000000
H    -0.285000000    -2.303000000     4.242000000
O     5.877000000    -0.078000000    -0.617000000
H     5.883000000     0.748000000    -0.135000000
H     5.481000000    -0.706000000    -0.012000000
O    -0.586000000     5.305000000     4.086000000
H     0.289000000     5.160000000     3.724000000
H    -0.937000000     4.425000000     4.222000000
O    -5.141000000     2.816000000    -4.166000000
H    -4.365000000     2.579000000    -3.658000000
H    -4.881000000     3.600000000    -4.649000000
O     7.689000000    -4.611000000    -0.706000000
H     6.812000000    -4.492000000    -0.341000000
H     7.542000000    -5.056000000    -1.541000000
O    -7.833000000     2.345000000    -0.103000000
H    -6.884000000     2.314000000     0.017000000
H    -7.992000000     3.185000000    -0.533000000
O     3.877000000    -2.813000000    -2.218000000
H     3.475000000    -2.905000000    -1.354000000
H     4.389000000    -3.614000000    -2.330000000
O     2.309000000    -6.820000000     1.751000000
H     2.726000000    -7.681000000     1.778000000
H     2.581000000    -6.448000000     0.913000000
O    -0.205000000     1.229000000    -3.893000000
H     0.433000000     0.588000000    -3.580000000
H     0.324000000     1.971000000    -4.184000000
O     0.574000000     0.899000000     3.225000000
H     0.368000000     1.024000000     2.298000000
H     0.475000000    -0.042000000     3.368000000
O     3.858000000    -2.602000000    -4.770000000
H     3.881000000    -1.647000000    -4.830000000
H     3.727000000    -2.781000000    -3.839000000
O    -2.347000000     3.039000000     4.874000000
H    -2.692000000     2.340000000     4.319000000
H    -1.838000000     2.583000000     5.544000000
O     4.048000000    -0.158000000    -3.103000000
H     4.549000000     0.643000000    -2.951000000
H     4.400000000    -0.784000000    -2.470000000
O     3.301000000     4.590000000     0.052000000
H     3.983000000     4.174000000     0.579000000
H     2.674000000     4.925000000     0.693000000
O     5.816000000    -5.532000000     2.860000000
H     5.254000000    -5.597000000     2.088000000
H     6.705000000    -5.499000000     2.508000000
O    -4.785000000     0.047000000    -0.911000000
H    -5.035000000     0.687000000    -1.577000000
H    -4.028000000    -0.404000000    -1.285000000
O    -0.898000000    -4.994000000     1.545000000
H    -0.844000000    -5.935000000     1.374000000
H    -0.313000000    -4.599000000     0.898000000
O    -0.602000000     5.790000000    -5.679000000
H    -0.508000000     5.272000000    -4.880000000
H    -1.020000000     5.196000000    -6.303000000
O    -3.168000000     4.987000000     0.355000000
H    -2.226000000     4.837000000     0.426000000
H    -3.289000000     5.340000000    -0.527000000
O    -3.361000000    -1.923000000    -2.198000000
H    -4.153000000    -2.418000000    -1.987000000
H    -2.642000000    -2.487000000    -1.912000000
