144
-2812.98997
O     2.359000000    -5.012000000    -2.100000000
H     1.872000000    -5.781000000    -1.803000000
H     2.195000000    -4.350000000    -1.428000000
O     1.836000000    -5.026000000     1.999000000
H     2.442000000    -5.739000000     1.798000000
H     1.805000000    -4.505000000     1.197000000
O    -4.970000000     3.199000000     3.579000000
H    -4.235000000     2.588000000     3.624000000
H    -4.771000000     3.759000000     2.828000000
O    -2.138000000     4.860000000    -1.928000000
H    -1.547000000     4.455000000    -2.562000000
H    -2.287000000     5.743000000    -2.269000000
O     0.872000000    -0.098000000     2.818000000
H     0.874000000    -1.032000000     3.028000000
H     0.800000000    -0.066000000     1.864000000
O     1.587000000    -7.350000000    -0.577000000
H     1.761000000    -8.079000000    -1.172000000
H     2.113000000    -7.543000000     0.199000000
O     0.142000000     5.855000000    -4.293000000
H    -0.357000000     5.041000000    -4.359000000
H     1.011000000     5.580000000    -4.003000000
O     3.927000000     5.054000000     2.941000000
H     3.874000000     4.451000000     3.682000000
H     4.130000000     4.494000000     2.191000000
O    -3.901000000     0.899000000    -3.530000000
H    -4.261000000     1.708000000    -3.166000000
H    -3.951000000     0.269000000    -2.811000000
O     0.910000000     6.585000000     3.363000000
H     1.775000000     6.307000000     3.663000000
H     0.301000000     6.181000000     3.981000000
O     0.560000000    -0.860000000    -4.270000000
H     0.915000000    -0.042000000    -3.922000000
H     1.331000000    -1.363000000    -4.532000000
O    -3.053000000    -7.108000000    -2.221000000
H    -3.604000000    -6.393000000    -1.902000000
H    -2.228000000    -7.002000000    -1.748000000
O     4.038000000    -4.474000000    -4.462000000
H     4.383000000    -5.258000000    -4.889000000
H     3.486000000    -4.809000000    -3.756000000
O    -4.113000000    -0.981000000     3.457000000
H    -3.737000000    -1.856000000     3.363000000
H    -4.270000000    -0.888000000     4.397000000
O    -0.731000000    -6.370000000    -1.081000000
H    -0.684000000    -5.444000000    -0.844000000
H     0.124000000    -6.724000000    -0.836000000
O     2.144000000     4.248000000    -2.806000000
H     2.063000000     4.408000000    -1.866000000
H     3.087000000     4.215000000    -2.963000000
O     2.625000000    -2.268000000    -5.308000000
H     2.863000000    -3.159000000    -5.049000000
H     3.252000000    -1.709000000    -4.848000000
O    -4.750000000     3.090000000    -1.246000000
H    -4.094000000     3.729000000    -0.967000000
H    -5.007000000     3.378000000    -2.122000000
O    -1.604000000     3.817000000    -4.637000000
H    -1.713000000     2.921000000    -4.954000000
H    -2.486000000     4.188000000    -4.660000000
O     0.199000000     6.776000000     0.752000000
H     1.027000000     6.489000000     0.366000000
H     0.375000000     6.820000000     1.691000000
O    -2.346000000     5.559000000     0.679000000
H    -2.305000000     5.221000000    -0.215000000
H    -1.519000000     6.028000000     0.796000000
O    -6.485000000    -0.161000000     1.742000000
H    -5.843000000    -0.168000000     2.453000000
H    -6.210000000    -0.874000000     1.165000000
O    -0.296000000     4.697000000     4.785000000
H     0.110000000     3.951000000     4.343000000
H    -1.135000000     4.361000000     5.100000000
O    -0.926000000    -3.102000000    -4.422000000
H    -1.398000000    -3.181000000    -3.593000000
H    -0.501000000    -2.245000000    -4.375000000
O    -2.629000000    -3.343000000     3.129000000
H    -2.308000000    -3.988000000     2.498000000
H    -1.963000000    -3.328000000     3.816000000
O     4.551000000     1.198000000     1.657000000
H     4.110000000     1.176000000     2.507000000
H     5.054000000     0.384000000     1.627000000
O     4.108000000    -2.221000000     0.161000000
H     4.423000000    -2.533000000     1.009000000
H     3.246000000    -2.625000000     0.063000000
O     5.623000000    -3.826000000    -1.492000000
H     5.069000000    -3.425000000    -0.823000000
H     5.011000000    -4.116000000    -2.168000000
O     1.079000000    -2.801000000     3.496000000
H     1.115000000    -3.491000000     2.834000000
H     0.626000000    -3.203000000     4.237000000
O     3.760000000     3.576000000     0.734000000
H     3.885000000     2.690000000     1.074000000
H     3.972000000     3.508000000    -0.196000000
O    -4.514000000     5.766000000     2.511000000
H    -4.327000000     6.116000000     3.381000000
H    -3.667000000     5.763000000     2.066000000
O     6.334000000    -0.427000000    -3.112000000
H     6.764000000     0.428000000    -3.094000000
H     6.137000000    -0.615000000    -2.195000000
O     0.949000000    -5.301000000    -4.945000000
H     0.129000000    -4.817000000    -5.050000000
H     1.312000000    -4.980000000    -4.120000000
O    -3.559000000    -5.203000000    -0.213000000
H    -4.104000000    -5.326000000     0.564000000
H    -2.671000000    -5.403000000     0.083000000
O     3.424000000     0.344000000     4.054000000
H     2.484000000     0.176000000     3.985000000
H     3.712000000    -0.201000000     4.786000000
O     5.456000000     0.200000000    -0.633000000
H     4.910000000    -0.502000000    -0.281000000
H     4.841000000     0.908000000    -0.827000000
O     0.321000000     2.304000000     3.618000000
H     0.035000000     2.729000000     2.810000000
H     0.665000000     1.457000000     3.335000000
O     1.041000000     1.917000000    -3.690000000
H     0.453000000     2.187000000    -4.396000000
H     1.215000000     2.722000000    -3.202000000
O    -2.990000000     1.422000000     3.659000000
H    -3.256000000     0.513000000     3.524000000
H    -2.037000000     1.407000000     3.579000000
O     3.951000000    -0.124000000    -4.321000000
H     4.394000000     0.434000000    -4.961000000
H     4.637000000    -0.363000000    -3.697000000
O     3.806000000     1.932000000    -2.079000000
H     4.369000000     2.047000000    -2.845000000
H     2.979000000     1.609000000    -2.436000000
O    -5.853000000    -2.368000000     0.212000000
H    -6.272000000    -2.795000000    -0.535000000
H    -5.374000000    -3.071000000     0.651000000
O     2.759000000     5.942000000    -0.151000000
H     3.343000000     6.672000000     0.056000000
H     3.119000000     5.201000000     0.335000000
O     5.024000000    -3.086000000     2.554000000
H     5.499000000    -2.488000000     3.130000000
H     5.272000000    -3.959000000     2.859000000
O    -1.399000000    -5.255000000     1.680000000
H    -0.881000000    -6.041000000     1.512000000
H    -1.068000000    -4.610000000     1.055000000
O    -2.381000000    -3.590000000    -2.053000000
H    -2.884000000    -4.326000000    -1.705000000
H    -1.710000000    -3.423000000    -1.392000000
O    -4.706000000     6.739000000    -0.409000000
H    -4.732000000     7.637000000    -0.080000000
H    -3.918000000     6.363000000    -0.016000000
O    -4.106000000    -1.002000000    -1.647000000
H    -3.672000000    -1.796000000    -1.959000000
H    -4.802000000    -1.321000000    -1.071000000
