144
-2815.47658
O    -5.372000000    -2.668000000    -1.788000000
H    -4.695000000    -2.920000000    -1.160000000
H    -4.987000000    -1.942000000    -2.277000000
O     5.313000000     0.675000000    -0.430000000
H     6.097000000     0.480000000    -0.944000000
H     4.592000000     0.320000000    -0.950000000
O    -1.851000000    -5.724000000     1.200000000
H    -2.358000000    -6.224000000     0.559000000
H    -2.499000000    -5.432000000     1.842000000
O     2.541000000     1.231000000     2.689000000
H     2.302000000     0.801000000     3.510000000
H     1.820000000     1.028000000     2.093000000
O     2.416000000    -2.738000000    -5.613000000
H     1.709000000    -2.332000000    -6.114000000
H     2.225000000    -3.675000000    -5.645000000
O     5.568000000    -4.623000000     0.165000000
H     5.848000000    -4.243000000    -0.668000000
H     4.690000000    -4.268000000     0.307000000
O    -0.706000000    -1.803000000     3.425000000
H    -0.743000000    -1.972000000     4.367000000
H     0.229000000    -1.781000000     3.222000000
O     2.175000000     1.283000000    -5.929000000
H     1.536000000     0.605000000    -5.711000000
H     2.417000000     1.664000000    -5.086000000
O    -6.722000000     4.470000000    -0.465000000
H    -7.570000000     4.457000000    -0.022000000
H    -6.713000000     3.669000000    -0.989000000
O     5.896000000     3.486000000    -0.258000000
H     6.612000000     3.672000000     0.348000000
H     5.823000000     2.532000000    -0.257000000
O    -3.141000000    -3.779000000    -0.808000000
H    -3.297000000    -4.716000000    -0.691000000
H    -2.751000000    -3.495000000     0.018000000
O    -0.941000000     0.075000000    -3.398000000
H    -0.626000000     0.621000000    -2.678000000
H    -1.840000000    -0.148000000    -3.155000000
O     1.105000000    -4.405000000    -2.560000000
H     1.449000000    -3.587000000    -2.200000000
H     0.190000000    -4.211000000    -2.762000000
O    -1.086000000    -3.555000000    -5.585000000
H    -1.008000000    -3.643000000    -4.635000000
H    -0.755000000    -2.677000000    -5.773000000
O     0.844000000    -4.988000000     1.294000000
H     0.998000000    -4.545000000     2.129000000
H    -0.099000000    -5.150000000     1.279000000
O     0.405000000    -7.230000000    -1.830000000
H    -0.107000000    -6.860000000    -2.549000000
H     0.974000000    -6.514000000    -1.548000000
O     0.262000000     4.884000000     0.246000000
H     1.051000000     5.314000000    -0.083000000
H    -0.069000000     4.386000000    -0.501000000
O    -7.431000000     1.602000000    -0.861000000
H    -7.357000000     0.778000000    -0.381000000
H    -6.599000000     1.685000000    -1.326000000
O    -4.411000000     0.541000000     6.314000000
H    -5.273000000     0.152000000     6.465000000
H    -4.588000000     1.314000000     5.779000000
O    -7.353000000    -1.072000000    -0.318000000
H    -6.769000000    -1.708000000    -0.732000000
H    -7.065000000    -1.041000000     0.594000000
O     5.370000000     0.673000000     2.518000000
H     4.591000000     1.077000000     2.901000000
H     5.147000000     0.552000000     1.595000000
O    -5.048000000    -2.865000000     4.132000000
H    -4.276000000    -2.316000000     3.996000000
H    -5.424000000    -2.552000000     4.954000000
O    -1.087000000     3.838000000     4.737000000
H    -0.330000000     3.304000000     4.980000000
H    -1.801000000     3.501000000     5.277000000
O     3.495000000     4.187000000     1.735000000
H     2.782000000     3.551000000     1.681000000
H     4.028000000     4.017000000     0.959000000
O     4.651000000     0.390000000    -6.135000000
H     3.718000000     0.593000000    -6.198000000
H     4.747000000    -0.036000000    -5.283000000
O    -6.067000000    -0.557000000     2.141000000
H    -5.148000000    -0.723000000     2.348000000
H    -6.144000000     0.398000000     2.140000000
O     7.276000000     0.149000000    -2.304000000
H     7.307000000     0.831000000    -2.975000000
H     7.706000000    -0.605000000    -2.709000000
O     2.490000000     5.974000000    -0.712000000
H     2.915000000     6.441000000    -1.432000000
H     3.094000000     6.067000000     0.024000000
O    -4.918000000     2.823000000     4.845000000
H    -5.087000000     3.629000000     5.333000000
H    -5.623000000     2.783000000     4.198000000
O    -0.610000000     3.458000000    -2.040000000
H    -0.673000000     3.757000000    -2.947000000
H    -1.453000000     3.691000000    -1.652000000
O     5.810000000    -2.483000000    -1.491000000
H     6.052000000    -2.002000000    -2.282000000
H     4.860000000    -2.383000000    -1.431000000
O    -6.749000000     2.220000000     2.508000000
H    -7.393000000     1.630000000     2.899000000
H    -7.084000000     3.098000000     2.694000000
O    -3.666000000    -0.936000000    -3.442000000
H    -3.976000000    -0.126000000    -3.846000000
H    -3.813000000    -1.607000000    -4.107000000
O     5.795000000    -2.213000000     2.018000000
H     5.333000000    -1.395000000     2.202000000
H     6.017000000    -2.159000000     1.088000000
O    -2.778000000     4.159000000    -0.483000000
H    -3.276000000     3.991000000     0.317000000
H    -2.685000000     5.111000000    -0.513000000
O    -4.124000000     3.763000000     1.683000000
H    -3.761000000     3.845000000     2.566000000
H    -4.881000000     3.188000000     1.788000000
O    -1.249000000     5.432000000     2.430000000
H    -0.788000000     5.099000000     1.660000000
H    -0.997000000     4.837000000     3.136000000
O     4.614000000    -4.678000000    -3.465000000
H     5.502000000    -4.404000000    -3.233000000
H     4.059000000    -3.947000000    -3.191000000
O     4.294000000     3.813000000    -2.698000000
H     4.897000000     3.466000000    -2.040000000
H     3.750000000     4.439000000    -2.219000000
O     2.434000000    -1.973000000     3.015000000
H     2.581000000    -2.545000000     3.769000000
H     2.758000000    -2.475000000     2.267000000
O    -1.482000000    -2.988000000    -2.887000000
H    -1.216000000    -2.118000000    -2.591000000
H    -2.247000000    -3.200000000    -2.352000000
O    -4.876000000     2.415000000    -2.045000000
H    -4.492000000     2.798000000    -2.833000000
H    -4.385000000     2.809000000    -1.323000000
O     2.680000000     1.786000000    -3.392000000
H     2.944000000     1.035000000    -2.861000000
H     3.270000000     2.490000000    -3.121000000
O     2.832000000    -6.749000000    -3.171000000
H     3.638000000    -6.248000000    -3.050000000
H     2.196000000    -6.106000000    -3.486000000
O     3.103000000    -3.758000000     0.551000000
H     2.962000000    -3.392000000    -0.322000000
H     2.330000000    -4.299000000     0.712000000
O     0.234000000     3.441000000    -4.779000000
H     0.820000000     3.159000000    -4.077000000
H     0.030000000     2.637000000    -5.258000000
O    -3.363000000    -0.680000000     3.970000000
H    -3.243000000     0.022000000     4.609000000
H    -2.475000000    -0.919000000     3.705000000
O     4.450000000    -1.635000000    -3.993000000
H     4.024000000    -1.189000000    -3.260000000
H     3.741000000    -2.102000000    -4.434000000
