144
-2827.95808
O    -5.673000000    -1.228000000     1.013000000
H    -5.297000000    -1.833000000     1.652000000
H    -5.444000000    -1.605000000     0.163000000
O     3.175000000    -2.039000000     1.768000000
H     3.979000000    -1.734000000     1.347000000
H     2.537000000    -2.089000000     1.056000000
O    -2.820000000    -5.540000000     1.430000000
H    -2.964000000    -5.469000000     2.374000000
H    -2.006000000    -5.061000000     1.276000000
O     1.092000000     2.872000000     3.544000000
H     1.820000000     3.258000000     3.058000000
H     0.718000000     2.228000000     2.943000000
O     5.058000000    -6.091000000     0.159000000
H     4.384000000    -6.538000000     0.670000000
H     4.569000000    -5.532000000    -0.445000000
O    -3.659000000    -3.910000000    -4.803000000
H    -3.068000000    -3.794000000    -4.059000000
H    -4.433000000    -4.334000000    -4.430000000
O     5.671000000    -3.213000000    -3.534000000
H     6.493000000    -3.516000000    -3.148000000
H     5.592000000    -3.709000000    -4.349000000
O    -1.788000000    -1.452000000    -3.692000000
H    -1.805000000    -2.159000000    -3.048000000
H    -1.857000000    -0.652000000    -3.172000000
O    -0.914000000     6.942000000     1.287000000
H    -1.155000000     7.845000000     1.494000000
H    -1.749000000     6.504000000     1.117000000
O    -3.361000000     4.027000000     2.656000000
H    -2.897000000     4.607000000     3.260000000
H    -3.126000000     4.351000000     1.786000000
O    -2.876000000     5.336000000     0.160000000
H    -2.817000000     4.855000000    -0.666000000
H    -3.532000000     6.013000000    -0.003000000
O     7.341000000     2.090000000    -0.315000000
H     7.004000000     2.062000000     0.581000000
H     6.566000000     1.985000000    -0.866000000
O    -4.665000000    -5.330000000    -0.589000000
H    -4.019000000    -5.399000000     0.114000000
H    -4.636000000    -4.409000000    -0.851000000
O    -4.149000000    -2.892000000    -1.141000000
H    -3.503000000    -3.246000000    -1.751000000
H    -4.478000000    -2.103000000    -1.572000000
O     2.009000000    -0.256000000     3.640000000
H     1.078000000    -0.452000000     3.538000000
H     2.455000000    -0.975000000     3.191000000
O    -2.213000000    -6.617000000    -2.734000000
H    -2.191000000    -7.336000000    -2.102000000
H    -2.453000000    -7.033000000    -3.562000000
O     0.653000000    -6.254000000    -1.616000000
H     0.685000000    -5.304000000    -1.502000000
H     0.274000000    -6.581000000    -0.800000000
O     0.878000000     2.039000000    -4.819000000
H     0.176000000     2.029000000    -4.167000000
H     0.595000000     1.411000000    -5.484000000
O    -5.623000000     2.508000000    -2.292000000
H    -5.582000000     2.167000000    -1.399000000
H    -6.559000000     2.584000000    -2.478000000
O    -1.119000000     1.357000000    -2.945000000
H    -0.819000000     2.177000000    -2.552000000
H    -1.170000000     0.744000000    -2.212000000
O    -4.366000000    -0.603000000     3.841000000
H    -4.254000000    -1.426000000     3.365000000
H    -4.354000000    -0.856000000     4.764000000
O    -5.978000000     1.306000000     0.129000000
H    -5.546000000     1.617000000     0.925000000
H    -6.137000000     0.376000000     0.290000000
O     5.248000000     1.228000000    -1.332000000
H     4.344000000     1.166000000    -1.641000000
H     5.779000000     0.995000000    -2.093000000
O     5.181000000    -1.160000000     0.162000000
H     5.116000000    -1.625000000    -0.672000000
H     5.475000000    -0.281000000    -0.077000000
O     1.687000000     5.497000000    -1.917000000
H     1.376000000     5.851000000    -1.083000000
H     1.807000000     6.266000000    -2.474000000
O     3.645000000    -4.885000000    -2.007000000
H     4.017000000    -4.430000000    -2.763000000
H     3.296000000    -4.185000000    -1.454000000
O    -3.183000000     3.929000000    -2.327000000
H    -3.756000000     3.246000000    -2.674000000
H    -2.313000000     3.701000000    -2.656000000
O     0.434000000    -6.104000000    -4.496000000
H     0.529000000    -5.916000000    -3.562000000
H    -0.084000000    -5.374000000    -4.836000000
O    -4.611000000    -0.526000000    -2.402000000
H    -4.643000000     0.408000000    -2.609000000
H    -5.530000000    -0.792000000    -2.354000000
O     3.638000000    -4.467000000     3.001000000
H     2.855000000    -4.929000000     2.700000000
H     3.574000000    -3.601000000     2.598000000
O     6.221000000     0.717000000     1.932000000
H     6.965000000     0.132000000     2.073000000
H     5.468000000     0.234000000     2.273000000
O    -0.314000000     3.865000000    -2.245000000
H    -0.537000000     3.959000000    -3.171000000
H     0.483000000     4.383000000    -2.137000000
O     3.611000000     1.697000000     4.540000000
H     2.826000000     2.230000000     4.661000000
H     3.280000000     0.839000000     4.276000000
O    -2.024000000     1.855000000     3.648000000
H    -2.250000000     2.608000000     3.102000000
H    -2.825000000     1.667000000     4.139000000
O    -5.388000000     2.072000000     2.749000000
H    -5.082000000     1.165000000     2.754000000
H    -4.592000000     2.594000000     2.851000000
O    -0.313000000     3.222000000     5.905000000
H    -0.970000000     3.837000000     5.580000000
H     0.182000000     2.966000000     5.127000000
O     2.704000000     1.590000000    -2.502000000
H     2.035000000     2.255000000    -2.340000000
H     2.804000000     1.578000000    -3.454000000
O     5.759000000    -0.153000000    -3.590000000
H     5.187000000    -0.897000000    -3.401000000
H     6.369000000    -0.482000000    -4.250000000
O     3.527000000     4.157000000    -0.425000000
H     3.325000000     4.077000000    -1.357000000
H     3.028000000     4.921000000    -0.136000000
O     2.981000000    -7.611000000    -2.331000000
H     3.395000000    -6.748000000    -2.344000000
H     2.052000000    -7.429000000    -2.190000000
O     1.701000000     6.143000000     0.813000000
H     0.763000000     6.283000000     0.945000000
H     1.975000000     5.627000000     1.572000000
O     5.231000000     3.220000000     1.509000000
H     5.543000000     2.321000000     1.412000000
H     4.479000000     3.278000000     0.920000000
O    -1.820000000    -3.975000000    -2.236000000
H    -1.092000000    -3.785000000    -1.644000000
H    -1.669000000    -4.876000000    -2.520000000
O     3.065000000     4.543000000     2.860000000
H     3.202000000     4.944000000     3.718000000
H     3.918000000     4.172000000     2.631000000
O    -0.838000000    -0.795000000     3.373000000
H    -1.146000000    -0.739000000     2.469000000
H    -1.226000000    -0.035000000     3.806000000
O    -0.101000000    -4.989000000     1.397000000
H     0.138000000    -4.539000000     0.586000000
H     0.641000000    -5.566000000     1.578000000
O    -4.134000000    -3.095000000     2.737000000
H    -3.410000000    -3.587000000     3.126000000
H    -4.921000000    -3.488000000     3.115000000
O     2.992000000    -1.354000000    -3.071000000
H     2.911000000    -1.983000000    -2.354000000
H     2.277000000    -0.735000000    -2.927000000
