144
-2800.45563
O     0.132000000    -2.745000000    -5.212000000
H     0.498000000    -3.322000000    -4.542000000
H     0.875000000    -2.531000000    -5.776000000
O    -1.798000000     5.391000000     2.282000000
H    -1.590000000     5.283000000     1.354000000
H    -1.183000000     4.814000000     2.735000000
O    -3.438000000    -5.184000000    -0.037000000
H    -3.956000000    -5.960000000     0.178000000
H    -4.071000000    -4.567000000    -0.404000000
O    -4.315000000    -1.515000000    -5.046000000
H    -5.066000000    -2.104000000    -4.978000000
H    -4.048000000    -1.360000000    -4.140000000
O     3.251000000    -2.141000000    -2.927000000
H     3.420000000    -1.441000000    -2.297000000
H     2.514000000    -2.626000000    -2.556000000
O    -1.096000000    -3.446000000     3.578000000
H    -0.790000000    -4.000000000     4.295000000
H    -0.584000000    -2.641000000     3.661000000
O    -7.261000000    -4.741000000    -0.112000000
H    -6.937000000    -4.890000000     0.776000000
H    -6.533000000    -4.315000000    -0.564000000
O     5.103000000    -3.061000000    -5.062000000
H     4.330000000    -2.771000000    -4.576000000
H     5.690000000    -2.305000000    -5.051000000
O    -6.228000000    -5.016000000     2.354000000
H    -5.490000000    -4.535000000     2.728000000
H    -6.953000000    -4.846000000     2.955000000
O     5.360000000     3.240000000     2.734000000
H     5.621000000     2.447000000     3.202000000
H     5.328000000     2.975000000     1.814000000
O     5.753000000     4.040000000    -5.080000000
H     5.779000000     4.612000000    -4.313000000
H     5.302000000     3.252000000    -4.776000000
O     5.904000000     0.541000000    -4.882000000
H     6.623000000     1.015000000    -4.466000000
H     5.112000000     0.951000000    -4.533000000
O     0.780000000    -4.911000000    -3.526000000
H     0.201000000    -5.229000000    -2.833000000
H     0.426000000    -5.293000000    -4.329000000
O     1.627000000     2.278000000     5.743000000
H     1.597000000     1.634000000     5.035000000
H     1.070000000     1.907000000     6.428000000
O     6.282000000    -1.846000000     2.924000000
H     6.082000000    -1.843000000     1.988000000
H     5.921000000    -2.672000000     3.244000000
O     3.971000000     2.413000000    -3.683000000
H     3.749000000     3.336000000    -3.555000000
H     3.750000000     1.997000000    -2.849000000
O     3.479000000    -5.868000000    -1.782000000
H     3.409000000    -5.074000000    -1.252000000
H     2.981000000    -5.672000000    -2.576000000
O     2.004000000    -4.169000000    -0.014000000
H     2.180000000    -4.513000000     0.862000000
H     1.055000000    -4.046000000    -0.037000000
O    -1.884000000    -6.217000000    -2.628000000
H    -2.452000000    -6.303000000    -3.394000000
H    -2.241000000    -5.470000000    -2.148000000
O    -7.088000000     1.057000000     1.200000000
H    -6.960000000     1.668000000     1.926000000
H    -6.559000000     0.294000000     1.433000000
O    -4.469000000     5.840000000     0.115000000
H    -4.375000000     4.899000000     0.264000000
H    -5.393000000     6.018000000     0.289000000
O     1.542000000     1.096000000     3.159000000
H     1.214000000     0.698000000     2.353000000
H     1.992000000     0.383000000     3.613000000
O     7.878000000    -1.576000000    -0.079000000
H     7.708000000    -2.378000000    -0.573000000
H     7.371000000    -0.903000000    -0.533000000
O    -6.124000000    -1.413000000     2.037000000
H    -6.713000000    -1.361000000     2.789000000
H    -5.541000000    -2.145000000     2.240000000
O    -4.940000000     1.562000000    -1.476000000
H    -5.057000000     2.243000000    -2.138000000
H    -4.762000000     2.042000000    -0.667000000
O    -2.133000000     1.196000000    -4.049000000
H    -2.592000000     0.587000000    -3.471000000
H    -2.690000000     1.974000000    -4.069000000
O    -4.556000000     3.953000000     4.185000000
H    -4.561000000     4.412000000     5.025000000
H    -3.698000000     3.530000000     4.147000000
O    -5.413000000    -1.846000000     5.168000000
H    -5.584000000    -2.094000000     6.076000000
H    -6.072000000    -1.180000000     4.973000000
O    -3.426000000    -0.678000000    -2.499000000
H    -2.815000000    -1.124000000    -1.912000000
H    -3.893000000    -0.062000000    -1.935000000
O     6.250000000     0.569000000    -1.218000000
H     6.218000000     1.400000000    -0.745000000
H     5.340000000     0.275000000    -1.247000000
O    -4.013000000    -3.106000000     2.572000000
H    -3.611000000    -3.877000000     2.170000000
H    -3.274000000    -2.596000000     2.903000000
O    -6.195000000    -0.954000000    -1.374000000
H    -5.768000000    -0.160000000    -1.696000000
H    -6.388000000    -0.767000000    -0.455000000
O     2.906000000    -2.402000000     2.432000000
H     3.460000000    -2.253000000     1.666000000
H     3.368000000    -1.969000000     3.150000000
O    -0.345000000     3.450000000     3.399000000
H     0.281000000     2.726000000     3.429000000
H    -1.099000000     3.135000000     3.898000000
O    -2.673000000     5.517000000    -2.385000000
H    -2.553000000     5.546000000    -1.436000000
H    -3.571000000     5.818000000    -2.522000000
O    -2.912000000    -0.815000000     4.831000000
H    -2.500000000    -1.161000000     5.622000000
H    -3.788000000    -1.199000000     4.829000000
O    -2.095000000     1.926000000     4.621000000
H    -2.380000000     1.994000000     5.532000000
H    -2.216000000     1.003000000     4.400000000
O    -0.860000000     5.313000000    -0.286000000
H    -0.787000000     5.942000000    -1.004000000
H    -0.258000000     4.608000000    -0.523000000
O     6.140000000     4.576000000    -2.265000000
H     6.636000000     5.216000000    -1.755000000
H     5.251000000     4.929000000    -2.292000000
O     1.696000000     5.757000000     3.050000000
H     2.467000000     5.424000000     3.508000000
H     1.162000000     4.980000000     2.883000000
O     2.608000000     6.810000000     0.725000000
H     3.545000000     6.999000000     0.681000000
H     2.453000000     6.577000000     1.640000000
O    -3.881000000     3.058000000     0.816000000
H    -3.151000000     3.036000000     1.436000000
H    -4.659000000     2.926000000     1.357000000
O     1.668000000     3.936000000    -2.081000000
H     2.221000000     3.188000000    -1.856000000
H     1.128000000     3.626000000    -2.808000000
O     4.166000000    -2.409000000     0.057000000
H     3.973000000    -1.563000000    -0.347000000
H     3.620000000    -3.033000000    -0.422000000
O     3.773000000     5.384000000    -1.441000000
H     3.689000000     5.911000000    -0.646000000
H     2.898000000     5.019000000    -1.579000000
O    -5.440000000    -3.464000000    -1.468000000
H    -5.895000000    -3.603000000    -2.299000000
H    -5.661000000    -2.566000000    -1.222000000
O     5.514000000     2.675000000    -0.099000000
H     5.809000000     3.386000000    -0.668000000
H     4.647000000     2.445000000    -0.432000000
O    -0.762000000    -4.134000000     0.614000000
H    -0.719000000    -3.899000000     1.541000000
H    -1.498000000    -4.744000000     0.556000000
