144
-2831.50993
O     0.651000000    -1.655000000     5.657000000
H     1.094000000    -1.189000000     6.366000000
H    -0.146000000    -1.148000000     5.500000000
O     0.639000000    -0.746000000    -3.006000000
H     0.793000000    -1.678000000    -2.852000000
H     0.519000000    -0.375000000    -2.132000000
O     7.151000000     3.033000000    -1.627000000
H     6.620000000     2.953000000    -2.419000000
H     7.036000000     3.943000000    -1.354000000
O     0.922000000     5.609000000    -0.161000000
H     1.365000000     5.249000000    -0.929000000
H     1.135000000     5.000000000     0.546000000
O     6.369000000     1.430000000    -4.110000000
H     5.467000000     1.380000000    -3.794000000
H     6.647000000     0.517000000    -4.186000000
O    -5.301000000    -0.480000000    -3.930000000
H    -4.715000000    -0.775000000    -4.627000000
H    -4.919000000     0.344000000    -3.629000000
O     2.260000000     4.109000000     1.573000000
H     2.807000000     3.340000000     1.413000000
H     2.837000000     4.853000000     1.400000000
O     3.977000000     0.478000000    -2.843000000
H     3.712000000    -0.425000000    -3.018000000
H     3.930000000     0.560000000    -1.890000000
O    -3.438000000    -1.392000000    -5.574000000
H    -2.945000000    -0.574000000    -5.634000000
H    -2.770000000    -2.077000000    -5.610000000
O    -4.183000000    -2.402000000     2.981000000
H    -4.966000000    -2.794000000     2.594000000
H    -4.361000000    -2.389000000     3.921000000
O     6.983000000    -1.141000000    -3.724000000
H     6.416000000    -1.350000000    -2.981000000
H     7.818000000    -1.560000000    -3.513000000
O    -1.599000000    -4.646000000     1.572000000
H    -2.439000000    -4.776000000     1.130000000
H    -1.830000000    -4.513000000     2.491000000
O     7.626000000     2.066000000     1.148000000
H     7.479000000     2.446000000     0.282000000
H     7.849000000     1.152000000     0.973000000
O    -5.537000000    -2.626000000    -2.301000000
H    -6.413000000    -2.525000000    -1.929000000
H    -5.394000000    -1.820000000    -2.797000000
O    -4.177000000    -3.876000000    -0.041000000
H    -4.030000000    -3.107000000     0.509000000
H    -4.702000000    -3.551000000    -0.772000000
O     4.681000000    -5.904000000     2.354000000
H     4.542000000    -5.719000000     3.283000000
H     4.193000000    -5.218000000     1.898000000
O     3.211000000    -2.117000000    -3.556000000
H     3.943000000    -2.732000000    -3.599000000
H     2.541000000    -2.577000000    -3.051000000
O     7.898000000    -1.584000000     3.096000000
H     8.071000000    -0.651000000     3.224000000
H     7.216000000    -1.792000000     3.734000000
O     3.122000000     2.848000000    -3.873000000
H     3.454000000     2.639000000    -4.746000000
H     2.971000000     1.996000000    -3.464000000
O     1.781000000    -3.406000000     3.685000000
H     2.255000000    -2.916000000     3.012000000
H     1.590000000    -2.759000000     4.363000000
O     6.315000000    -3.885000000     4.248000000
H     5.549000000    -3.312000000     4.257000000
H     6.518000000    -3.999000000     3.319000000
O     0.833000000    -3.492000000    -2.524000000
H    -0.040000000    -3.884000000    -2.549000000
H     1.132000000    -3.632000000    -1.625000000
O    -1.878000000    -1.015000000     4.462000000
H    -1.440000000    -0.434000000     3.840000000
H    -2.082000000    -1.800000000     3.954000000
O     8.148000000    -0.849000000     0.504000000
H     7.275000000    -1.063000000     0.177000000
H     8.166000000    -1.207000000     1.392000000
O    -1.545000000    -4.481000000    -1.199000000
H    -2.420000000    -4.118000000    -1.058000000
H    -1.235000000    -4.705000000    -0.321000000
O    -7.644000000     0.831000000    -1.145000000
H    -7.377000000     1.504000000    -1.771000000
H    -6.932000000     0.192000000    -1.162000000
O    -0.846000000     0.775000000     2.695000000
H    -1.287000000     1.575000000     2.410000000
H    -0.400000000     0.455000000     1.911000000
O     3.760000000    -0.356000000     5.649000000
H     4.003000000    -0.814000000     6.453000000
H     3.286000000     0.420000000     5.948000000
O     6.525000000     0.427000000     5.250000000
H     6.047000000     0.036000000     5.981000000
H     5.879000000     0.489000000     4.546000000
O     5.847000000    -1.340000000    -0.703000000
H     5.184000000    -0.708000000    -0.425000000
H     5.366000000    -1.972000000    -1.237000000
O    -4.657000000     0.372000000     2.704000000
H    -4.772000000    -0.573000000     2.610000000
H    -3.930000000     0.465000000     3.320000000
O    -1.852000000     5.731000000    -0.920000000
H    -0.951000000     5.956000000    -0.692000000
H    -2.346000000     5.869000000    -0.111000000
O    -5.630000000     3.853000000    -0.854000000
H    -5.285000000     4.259000000    -0.059000000
H    -6.073000000     4.566000000    -1.314000000
O    -1.473000000     0.386000000    -4.839000000
H    -1.343000000     1.280000000    -5.156000000
H    -0.957000000     0.340000000    -4.034000000
O     4.838000000     1.055000000     3.300000000
H     4.594000000     0.556000000     2.520000000
H     4.029000000     1.489000000     3.570000000
O    -4.878000000     2.921000000     2.236000000
H    -5.813000000     2.944000000     2.032000000
H    -4.740000000     2.060000000     2.630000000
O     4.457000000    -2.040000000     3.609000000
H     4.294000000    -1.580000000     2.786000000
H     4.083000000    -1.468000000     4.280000000
O     0.832000000     4.145000000     3.998000000
H     0.046000000     3.615000000     4.125000000
H     1.113000000     3.948000000     3.104000000
O    -0.918000000    -4.019000000     4.708000000
H    -1.087000000    -3.230000000     5.224000000
H    -0.065000000    -3.861000000     4.302000000
O    -4.984000000     2.087000000    -3.041000000
H    -5.351000000     2.473000000    -2.245000000
H    -4.336000000     2.725000000    -3.339000000
O    -2.155000000     3.070000000     1.826000000
H    -1.757000000     3.821000000     1.386000000
H    -3.046000000     3.033000000     1.480000000
O    -2.987000000     4.262000000    -2.843000000
H    -3.540000000     4.838000000    -3.371000000
H    -2.614000000     4.836000000    -2.174000000
O     5.518000000     5.446000000    -0.639000000
H     4.753000000     5.034000000    -0.237000000
H     5.726000000     6.181000000    -0.062000000
O     1.672000000    -4.870000000    -0.143000000
H     2.137000000    -4.335000000     0.501000000
H     1.037000000    -5.368000000     0.372000000
O    -1.553000000     3.196000000    -5.193000000
H    -1.910000000     3.325000000    -4.314000000
H    -0.820000000     3.809000000    -5.246000000
O     3.859000000    -3.281000000     0.947000000
H     3.611000000    -2.401000000     1.229000000
H     4.799000000    -3.221000000     0.776000000
O     2.093000000     4.810000000    -2.402000000
H     1.813000000     5.481000000    -3.024000000
H     2.539000000     4.155000000    -2.940000000
O     4.667000000     2.576000000     0.918000000
H     5.567000000     2.383000000     1.183000000
H     4.391000000     1.802000000     0.428000000
