144
-2824.34934
O    -2.111000000    -2.878000000    -1.744000000
H    -1.786000000    -1.994000000    -1.916000000
H    -1.324000000    -3.390000000    -1.556000000
O     0.805000000     2.955000000     0.201000000
H     0.865000000     2.002000000     0.130000000
H     1.243000000     3.282000000    -0.585000000
O     3.069000000    -3.344000000    -1.986000000
H     3.559000000    -2.786000000    -1.382000000
H     3.706000000    -3.995000000    -2.280000000
O     0.472000000    -3.891000000    -1.422000000
H     0.349000000    -4.803000000    -1.687000000
H     1.422000000    -3.770000000    -1.417000000
O    -4.630000000    -1.969000000    -2.796000000
H    -5.466000000    -2.148000000    -2.367000000
H    -3.980000000    -2.412000000    -2.251000000
O     0.614000000    -2.622000000     5.796000000
H     0.014000000    -2.082000000     6.310000000
H     0.304000000    -2.534000000     4.895000000
O     4.893000000     1.480000000     2.180000000
H     4.170000000     1.951000000     2.595000000
H     4.469000000     0.782000000     1.682000000
O    -1.508000000     1.115000000    -5.177000000
H    -0.768000000     1.052000000    -4.573000000
H    -2.123000000     0.448000000    -4.873000000
O    -4.389000000     0.245000000    -4.701000000
H    -4.389000000    -0.642000000    -4.340000000
H    -4.850000000     0.770000000    -4.047000000
O    -1.007000000    -4.248000000     1.039000000
H    -1.933000000    -4.289000000     0.802000000
H    -0.594000000    -3.782000000     0.312000000
O     6.829000000     3.436000000     1.222000000
H     6.419000000     2.594000000     1.025000000
H     7.711000000     3.364000000     0.857000000
O    -7.386000000    -1.287000000    -2.114000000
H    -7.478000000    -0.473000000    -1.621000000
H    -7.869000000    -1.935000000    -1.601000000
O     5.229000000    -4.334000000     3.729000000
H     5.144000000    -4.620000000     4.638000000
H     5.050000000    -3.394000000     3.755000000
O    -5.480000000    -2.896000000     2.604000000
H    -6.353000000    -2.991000000     2.223000000
H    -5.447000000    -1.988000000     2.905000000
O    -0.674000000    -2.066000000    -5.227000000
H    -0.149000000    -2.414000000    -5.948000000
H    -0.035000000    -1.843000000    -4.551000000
O     7.877000000    -2.357000000     2.312000000
H     8.018000000    -1.586000000     1.762000000
H     6.929000000    -2.393000000     2.435000000
O    -3.144000000    -3.487000000    -4.673000000
H    -2.350000000    -3.001000000    -4.895000000
H    -3.589000000    -2.938000000    -4.028000000
O     4.457000000     0.369000000    -2.033000000
H     4.556000000    -0.159000000    -1.241000000
H     5.138000000     0.046000000    -2.623000000
O     0.441000000     1.933000000     4.640000000
H     1.251000000     1.464000000     4.438000000
H     0.156000000     1.567000000     5.478000000
O     5.107000000    -0.943000000     6.439000000
H     6.027000000    -1.208000000     6.432000000
H     4.631000000    -1.724000000     6.157000000
O     5.562000000    -4.331000000     1.017000000
H     5.504000000    -5.276000000     0.879000000
H     5.446000000    -4.219000000     1.961000000
O     1.250000000    -5.974000000     1.302000000
H     1.835000000    -5.448000000     1.847000000
H     0.444000000    -5.461000000     1.251000000
O     2.798000000     3.757000000     1.946000000
H     3.289000000     3.952000000     1.147000000
H     1.888000000     3.952000000     1.721000000
O     0.926000000     3.519000000    -6.356000000
H     0.988000000     3.005000000    -5.551000000
H     0.155000000     3.172000000    -6.804000000
O    -3.396000000     3.516000000    -5.300000000
H    -2.773000000     2.795000000    -5.389000000
H    -2.898000000     4.211000000    -4.870000000
O    -3.872000000    -4.543000000     1.044000000
H    -4.347000000    -3.834000000     1.477000000
H    -4.552000000    -5.170000000     0.796000000
O    -4.605000000     4.904000000    -2.270000000
H    -3.957000000     5.516000000    -2.618000000
H    -4.090000000     4.262000000    -1.781000000
O     1.128000000     1.439000000    -4.251000000
H     1.564000000     0.620000000    -4.489000000
H     1.593000000     1.740000000    -3.471000000
O    -0.761000000    -2.899000000     3.536000000
H    -0.795000000    -3.361000000     2.699000000
H    -1.373000000    -2.170000000     3.433000000
O     3.559000000    -3.156000000     5.884000000
H     2.732000000    -2.674000000     5.902000000
H     3.538000000    -3.695000000     6.675000000
O     4.763000000    -2.035000000    -0.450000000
H     4.303000000    -1.826000000     0.364000000
H     5.257000000    -2.830000000    -0.249000000
O    -2.575000000    -4.853000000     3.583000000
H    -1.992000000    -4.207000000     3.982000000
H    -2.627000000    -4.591000000     2.663000000
O    -6.068000000     3.028000000    -4.465000000
H    -5.206000000     3.241000000    -4.822000000
H    -5.882000000     2.549000000    -3.658000000
O    -3.487000000     1.814000000     2.993000000
H    -2.636000000     2.157000000     2.719000000
H    -3.931000000     2.563000000     3.390000000
O    -6.411000000     2.323000000     1.682000000
H    -5.544000000     2.301000000     2.087000000
H    -6.931000000     2.883000000     2.260000000
O    -0.951000000     2.065000000    -7.527000000
H    -1.514000000     1.566000000    -8.119000000
H    -1.214000000     1.782000000    -6.652000000
O    -0.922000000     2.921000000     2.492000000
H    -0.463000000     2.645000000     1.699000000
H    -0.406000000     2.550000000     3.208000000
O     4.521000000    -0.462000000    -6.049000000
H     4.026000000    -0.671000000    -6.841000000
H     3.851000000    -0.305000000    -5.383000000
O     5.391000000    -1.546000000     3.264000000
H     4.700000000    -1.721000000     2.625000000
H     5.495000000    -0.594000000     3.250000000
O    -3.040000000     4.719000000     2.136000000
H    -2.169000000     4.323000000     2.140000000
H    -3.282000000     4.776000000     3.060000000
O    -2.684000000    -0.650000000     3.695000000
H    -2.979000000    -1.039000000     4.518000000
H    -3.131000000     0.195000000     3.655000000
O    -3.405000000     3.352000000    -0.221000000
H    -3.417000000     3.817000000     0.615000000
H    -2.728000000     2.683000000    -0.114000000
O    -0.445000000     3.828000000    -3.624000000
H    -0.072000000     4.699000000    -3.492000000
H     0.085000000     3.254000000    -3.070000000
O     2.492000000     2.558000000    -2.101000000
H     2.954000000     3.362000000    -2.339000000
H     3.184000000     1.904000000    -2.006000000
O    -5.141000000     1.499000000    -2.422000000
H    -5.523000000     1.295000000    -1.568000000
H    -4.201000000     1.566000000    -2.254000000
O     2.550000000    -1.157000000    -4.141000000
H     2.415000000    -1.981000000    -4.609000000
H     2.664000000    -1.416000000    -3.227000000
O     2.221000000    -3.783000000     2.636000000
H     3.147000000    -3.906000000     2.845000000
H     2.066000000    -2.849000000     2.779000000
O     3.201000000     0.723000000     4.752000000
H     3.927000000     0.284000000     5.195000000
H     2.821000000     0.048000000     4.189000000
