144
-2819.25506
O    -2.640000000    -3.157000000    -2.579000000
H    -3.228000000    -3.511000000    -1.911000000
H    -1.763000000    -3.390000000    -2.274000000
O     1.457000000    -1.540000000    -6.861000000
H     1.683000000    -1.092000000    -6.046000000
H     0.522000000    -1.371000000    -6.976000000
O    -0.954000000     4.407000000     1.725000000
H    -1.257000000     3.968000000     2.520000000
H    -0.103000000     4.009000000     1.542000000
O     1.756000000     4.324000000     1.344000000
H     2.657000000     4.648000000     1.332000000
H     1.581000000     4.068000000     0.439000000
O     6.741000000    -2.144000000    -2.560000000
H     5.982000000    -1.914000000    -2.024000000
H     7.303000000    -2.652000000    -1.974000000
O    -0.158000000    -3.754000000    -1.628000000
H     0.219000000    -3.198000000    -0.947000000
H     0.030000000    -4.648000000    -1.341000000
O    -6.614000000    -2.601000000    -3.828000000
H    -7.449000000    -2.145000000    -3.725000000
H    -6.252000000    -2.641000000    -2.943000000
O     1.014000000    -0.871000000     5.018000000
H     1.026000000     0.080000000     5.129000000
H     1.453000000    -1.020000000     4.181000000
O     4.748000000     1.975000000    -0.076000000
H     3.997000000     1.398000000    -0.213000000
H     4.735000000     2.569000000    -0.826000000
O    -0.240000000     1.644000000    -5.407000000
H     0.598000000     1.270000000    -5.131000000
H    -0.674000000     0.934000000    -5.880000000
O     3.590000000     3.871000000     5.019000000
H     2.879000000     4.407000000     4.668000000
H     3.641000000     3.122000000     4.425000000
O    -4.383000000     1.014000000    -4.577000000
H    -5.068000000     1.060000000    -3.911000000
H    -3.813000000     1.759000000    -4.386000000
O     4.294000000    -1.222000000    -5.993000000
H     3.960000000    -0.944000000    -6.846000000
H     3.629000000    -0.931000000    -5.369000000
O    -1.078000000    -3.757000000     1.615000000
H    -1.734000000    -3.793000000     0.920000000
H    -1.508000000    -4.157000000     2.371000000
O     5.143000000    -4.501000000     3.299000000
H     5.717000000    -4.775000000     4.014000000
H     5.246000000    -3.550000000     3.260000000
O    -6.198000000    -2.604000000    -1.135000000
H    -6.931000000    -2.741000000    -0.536000000
H    -6.055000000    -1.657000000    -1.126000000
O    -1.099000000    -1.091000000    -6.876000000
H    -1.872000000    -0.677000000    -7.260000000
H    -1.409000000    -1.454000000    -6.046000000
O     7.779000000    -1.972000000     0.774000000
H     7.547000000    -1.353000000     0.081000000
H     6.982000000    -2.055000000     1.297000000
O     7.397000000     0.971000000     1.278000000
H     6.455000000     1.138000000     1.302000000
H     7.615000000     0.960000000     0.346000000
O    -2.805000000    -1.569000000    -4.769000000
H    -3.392000000    -0.848000000    -4.542000000
H    -2.557000000    -1.951000000    -3.927000000
O     3.572000000     0.450000000    -2.278000000
H     4.130000000    -0.287000000    -2.030000000
H     4.107000000     0.960000000    -2.887000000
O     1.216000000     1.873000000     5.645000000
H     2.091000000     2.260000000     5.676000000
H     0.892000000     1.943000000     6.542000000
O     5.848000000     0.868000000     4.502000000
H     6.797000000     0.896000000     4.626000000
H     5.548000000     0.188000000     5.105000000
O     5.690000000    -4.350000000     0.317000000
H     4.860000000    -4.376000000    -0.158000000
H     5.438000000    -4.338000000     1.240000000
O     1.094000000    -5.754000000     1.555000000
H     1.672000000    -5.097000000     1.943000000
H     0.244000000    -5.317000000     1.491000000
O    -2.273000000     3.440000000    -4.616000000
H    -1.740000000     2.652000000    -4.722000000
H    -1.976000000     3.821000000    -3.789000000
O    -4.258000000    -4.327000000    -0.843000000
H    -4.977000000    -3.698000000    -0.791000000
H    -4.579000000    -5.098000000    -0.374000000
O     0.639000000    -5.520000000     4.692000000
H     1.001000000    -4.809000000     4.163000000
H    -0.305000000    -5.476000000     4.540000000
O    -3.966000000     6.489000000    -1.990000000
H    -3.738000000     5.789000000    -1.377000000
H    -3.630000000     7.286000000    -1.579000000
O     1.898000000    -0.520000000    -4.465000000
H     1.391000000    -1.277000000    -4.171000000
H     2.291000000    -0.170000000    -3.666000000
O    -3.635000000    -0.603000000     2.766000000
H    -2.854000000    -1.157000000     2.774000000
H    -3.425000000     0.115000000     3.364000000
O     3.924000000    -1.169000000     6.999000000
H     3.276000000    -1.671000000     7.493000000
H     3.411000000    -0.507000000     6.535000000
O     1.462000000     5.365000000     4.091000000
H     1.203000000     4.769000000     3.388000000
H     1.833000000     6.122000000     3.638000000
O     4.351000000    -2.171000000    -1.365000000
H     4.134000000    -1.890000000    -0.476000000
H     3.889000000    -3.003000000    -1.473000000
O    -4.710000000     5.114000000    -4.318000000
H    -4.034000000     4.438000000    -4.277000000
H    -4.435000000     5.767000000    -3.675000000
O    -3.484000000     1.957000000     4.031000000
H    -2.609000000     2.226000000     4.312000000
H    -3.628000000     2.429000000     3.211000000
O    -1.125000000     3.066000000     4.560000000
H    -0.966000000     3.796000000     5.159000000
H    -0.359000000     2.501000000     4.664000000
O     3.483000000    -4.913000000    -1.230000000
H     3.294000000    -5.099000000    -2.149000000
H     2.921000000    -5.515000000    -0.743000000
O     5.615000000    -1.741000000     2.564000000
H     4.857000000    -1.588000000     2.000000000
H     5.828000000    -0.878000000     2.919000000
O    -1.223000000    -2.074000000     3.833000000
H    -0.939000000    -1.904000000     2.935000000
H    -0.515000000    -1.731000000     4.377000000
O    -5.814000000     0.307000000     0.726000000
H    -6.337000000     0.485000000     1.508000000
H    -4.914000000     0.246000000     1.049000000
O    -2.934000000     4.942000000     0.002000000
H    -2.233000000     4.562000000     0.531000000
H    -3.573000000     5.257000000     0.641000000
O    -0.997000000     4.485000000    -2.132000000
H    -1.697000000     4.636000000    -1.498000000
H    -0.390000000     5.212000000    -1.997000000
O     1.436000000     2.844000000    -0.936000000
H     1.631000000     2.719000000    -1.864000000
H     0.939000000     2.064000000    -0.688000000
O    -6.101000000     1.052000000    -2.301000000
H    -6.035000000     0.269000000    -1.754000000
H    -6.631000000     1.660000000    -1.785000000
O     0.144000000    -2.719000000    -4.314000000
H     0.042000000    -3.104000000    -3.444000000
H     0.285000000    -3.468000000    -4.893000000
O     2.345000000    -3.748000000     3.251000000
H     3.136000000    -4.272000000     3.373000000
H     2.668000000    -2.871000000     3.043000000
O     3.429000000     1.612000000     3.283000000
H     4.172000000     1.150000000     3.673000000
H     2.839000000     0.916000000     2.994000000
