144
-2808.26651
O    -3.370000000    -2.787000000     0.835000000
H    -4.101000000    -3.395000000     0.952000000
H    -3.477000000    -2.453000000    -0.055000000
O     0.954000000     5.606000000     0.984000000
H     1.081000000     5.058000000     0.209000000
H     0.246000000     6.202000000     0.742000000
O     3.248000000    -1.585000000    -3.193000000
H     3.492000000    -0.674000000    -3.028000000
H     3.530000000    -2.054000000    -2.408000000
O     0.810000000    -4.944000000    -5.150000000
H     0.156000000    -5.006000000    -4.454000000
H     0.853000000    -5.827000000    -5.518000000
O    -3.827000000    -0.058000000    -4.495000000
H    -3.904000000     0.803000000    -4.085000000
H    -4.726000000    -0.299000000    -4.718000000
O    -2.240000000    -1.095000000     5.828000000
H    -2.175000000    -1.263000000     4.888000000
H    -2.218000000    -0.141000000     5.904000000
O     4.658000000     2.573000000     1.826000000
H     3.856000000     2.403000000     2.321000000
H     5.054000000     1.709000000     1.709000000
O    -1.398000000     0.385000000    -5.825000000
H    -0.662000000    -0.197000000    -5.638000000
H    -2.077000000     0.121000000    -5.204000000
O     3.101000000     1.843000000     5.796000000
H     3.453000000     0.994000000     5.527000000
H     2.382000000     1.627000000     6.390000000
O    -6.587000000     0.621000000    -1.433000000
H    -7.523000000     0.764000000    -1.576000000
H    -6.399000000    -0.204000000    -1.882000000
O    -1.246000000    -4.200000000    -3.497000000
H    -1.917000000    -4.069000000    -4.167000000
H    -1.635000000    -3.849000000    -2.696000000
O    -1.152000000     3.062000000    -6.677000000
H    -1.965000000     3.413000000    -7.040000000
H    -1.370000000     2.165000000    -6.424000000
O     5.781000000    -2.852000000     4.916000000
H     6.486000000    -2.205000000     4.946000000
H     6.058000000    -3.477000000     4.246000000
O     6.387000000     0.479000000     4.598000000
H     6.298000000     0.206000000     3.685000000
H     5.732000000    -0.038000000     5.068000000
O    -1.261000000     5.699000000    -1.285000000
H    -0.869000000     6.430000000    -0.809000000
H    -0.538000000     5.086000000    -1.421000000
O    -1.905000000     1.593000000     6.513000000
H    -1.666000000     2.151000000     5.773000000
H    -2.523000000     2.120000000     7.020000000
O     3.833000000    -0.754000000     5.230000000
H     4.209000000    -1.631000000     5.156000000
H     3.246000000    -0.681000000     4.477000000
O     4.475000000    -2.304000000    -0.528000000
H     4.394000000    -3.235000000    -0.324000000
H     4.093000000    -1.858000000     0.228000000
O     0.488000000    -2.514000000     4.706000000
H     0.768000000    -1.838000000     4.089000000
H     1.293000000    -2.779000000     5.151000000
O     2.216000000     4.888000000     3.274000000
H     2.112000000     3.948000000     3.423000000
H     1.682000000     5.067000000     2.499000000
O    -2.973000000     5.085000000    -3.649000000
H    -2.857000000     5.826000000    -4.244000000
H    -2.328000000     5.230000000    -2.957000000
O     3.598000000    -5.781000000     4.313000000
H     3.037000000    -5.335000000     3.678000000
H     2.996000000    -6.086000000     4.992000000
O     5.599000000    -0.225000000     1.856000000
H     6.038000000    -1.001000000     1.506000000
H     4.666000000    -0.427000000     1.790000000
O    -2.366000000    -1.191000000     2.978000000
H    -2.995000000    -0.470000000     2.948000000
H    -2.526000000    -1.683000000     2.173000000
O     1.953000000    -4.640000000    -1.926000000
H     2.555000000    -4.556000000    -1.186000000
H     1.161000000    -4.183000000    -1.643000000
O    -2.753000000     4.565000000     1.528000000
H    -2.728000000     4.299000000     0.609000000
H    -2.260000000     5.385000000     1.553000000
O     4.256000000     0.950000000    -2.728000000
H     4.727000000     0.764000000    -1.916000000
H     4.925000000     1.291000000    -3.321000000
O    -1.101000000    -4.558000000     5.676000000
H    -0.462000000    -3.853000000     5.575000000
H    -1.782000000    -4.186000000     6.237000000
O    -2.014000000     4.614000000     5.322000000
H    -2.596000000     5.311000000     5.018000000
H    -2.197000000     3.877000000     4.738000000
O     0.274000000    -6.919000000    -0.689000000
H     1.100000000    -6.436000000    -0.659000000
H    -0.378000000    -6.264000000    -0.938000000
O    -4.292000000     2.565000000    -3.495000000
H    -3.605000000     3.220000000    -3.621000000
H    -4.525000000     2.637000000    -2.569000000
O    -6.859000000     0.466000000     1.554000000
H    -6.746000000     0.477000000     0.604000000
H    -7.022000000    -0.453000000     1.765000000
O    -1.869000000     2.603000000     3.355000000
H    -2.218000000     1.761000000     3.062000000
H    -2.187000000     3.232000000     2.707000000
O    -1.360000000    -4.645000000     0.061000000
H    -1.116000000    -4.919000000     0.945000000
H    -1.723000000    -3.766000000     0.175000000
O    -3.279000000    -1.979000000    -1.900000000
H    -3.795000000    -2.714000000    -2.232000000
H    -3.082000000    -1.454000000    -2.676000000
O     3.879000000    -2.454000000    -5.722000000
H     3.186000000    -2.516000000    -6.380000000
H     3.456000000    -2.049000000    -4.966000000
O    -5.128000000     2.715000000    -0.284000000
H    -4.813000000     2.246000000     0.489000000
H    -5.756000000     2.117000000    -0.688000000
O     7.427000000    -2.216000000     1.435000000
H     7.778000000    -2.858000000     0.817000000
H     7.403000000    -2.679000000     2.273000000
O     2.286000000    -3.511000000     6.785000000
H     3.118000000    -3.914000000     7.032000000
H     2.165000000    -2.803000000     7.418000000
O     2.388000000     3.279000000    -2.851000000
H     3.059000000     2.602000000    -2.763000000
H     2.518000000     3.632000000    -3.731000000
O    -4.379000000     0.570000000     2.946000000
H    -4.769000000     0.843000000     3.776000000
H    -5.125000000     0.449000000     2.359000000
O    -5.223000000     4.450000000     3.193000000
H    -4.619000000     4.373000000     2.454000000
H    -4.859000000     5.157000000     3.727000000
O     1.045000000     5.894000000    -3.345000000
H     1.717000000     5.426000000    -2.849000000
H     0.819000000     5.301000000    -4.062000000
O     0.523000000     3.685000000    -0.926000000
H     1.159000000     3.374000000    -1.571000000
H     0.350000000     2.922000000    -0.374000000
O     3.963000000    -5.008000000     0.134000000
H     4.479000000    -5.812000000     0.194000000
H     3.609000000    -4.885000000     1.014000000
O     0.994000000    -2.119000000    -5.249000000
H     1.359000000    -2.022000000    -4.370000000
H     0.757000000    -3.045000000    -5.309000000
O     2.275000000    -4.421000000     2.381000000
H     2.732000000    -3.623000000     2.116000000
H     1.347000000    -4.218000000     2.256000000
O     2.131000000     2.124000000     3.278000000
H     2.585000000     2.132000000     4.120000000
H     1.867000000     1.211000000     3.156000000
