144
-2768.82895
O     0.156000000     1.516000000     4.557000000
H     0.313000000     0.573000000     4.499000000
H    -0.445000000     1.614000000     5.295000000
O     2.295000000     1.807000000     0.089000000
H     1.465000000     1.353000000     0.229000000
H     2.951000000     1.235000000     0.487000000
O     3.895000000    -0.113000000     1.197000000
H     4.514000000    -0.679000000     0.735000000
H     3.302000000    -0.718000000     1.641000000
O    -3.372000000     5.057000000     0.381000000
H    -3.128000000     4.807000000     1.273000000
H    -3.636000000     5.975000000     0.454000000
O    -2.859000000    -3.296000000    -5.334000000
H    -2.546000000    -3.139000000    -4.443000000
H    -2.221000000    -3.903000000    -5.708000000
O    -4.840000000     3.216000000    -1.061000000
H    -4.707000000     2.531000000    -0.405000000
H    -4.158000000     3.861000000    -0.875000000
O     4.793000000    -0.616000000    -3.162000000
H     5.146000000     0.076000000    -2.602000000
H     4.166000000    -0.168000000    -3.729000000
O    -5.655000000     2.067000000     4.427000000
H    -6.011000000     2.263000000     3.560000000
H    -5.062000000     1.330000000     4.280000000
O     0.695000000    -3.207000000     5.492000000
H     0.766000000    -2.483000000     4.870000000
H    -0.169000000    -3.583000000     5.324000000
O     6.048000000    -1.491000000     0.343000000
H     5.891000000    -2.300000000     0.830000000
H     6.876000000    -1.642000000    -0.112000000
O     2.347000000    -5.633000000     6.579000000
H     1.831000000    -4.829000000     6.524000000
H     3.138000000    -5.445000000     6.074000000
O     2.906000000     0.241000000     4.889000000
H     2.240000000    -0.262000000     4.421000000
H     2.921000000    -0.140000000     5.767000000
O    -3.416000000    -1.141000000    -1.972000000
H    -2.718000000    -1.122000000    -1.317000000
H    -3.610000000    -2.071000000    -2.089000000
O    -2.800000000    -3.385000000     6.283000000
H    -2.574000000    -2.647000000     5.717000000
H    -3.659000000    -3.160000000     6.640000000
O     2.224000000     1.083000000    -3.983000000
H     2.762000000     1.633000000    -3.414000000
H     2.351000000     1.447000000    -4.859000000
O     0.901000000    -2.896000000     8.515000000
H     1.857000000    -2.948000000     8.539000000
H     0.697000000    -2.644000000     7.614000000
O    -3.334000000     1.439000000    -4.814000000
H    -3.725000000     2.300000000    -4.963000000
H    -2.406000000     1.620000000    -4.665000000
O    -5.353000000     4.271000000     2.437000000
H    -5.549000000     5.143000000     2.780000000
H    -4.524000000     4.031000000     2.851000000
O     5.728000000    -3.992000000     1.738000000
H     5.232000000    -4.619000000     2.264000000
H     6.586000000    -4.401000000     1.623000000
O     1.394000000     2.560000000     7.159000000
H     1.028000000     1.957000000     7.806000000
H     1.138000000     2.190000000     6.314000000
O     5.734000000     0.727000000     5.970000000
H     5.435000000    -0.069000000     6.409000000
H     4.980000000     1.015000000     5.456000000
O     4.708000000     1.432000000     3.114000000
H     4.969000000     0.973000000     2.316000000
H     4.134000000     0.816000000     3.568000000
O     1.190000000    -1.400000000    -5.208000000
H     1.362000000    -0.742000000    -4.535000000
H     1.718000000    -2.154000000    -4.947000000
O     3.207000000    -6.224000000     0.146000000
H     3.865000000    -6.389000000     0.822000000
H     3.044000000    -5.282000000     0.196000000
O     3.855000000     2.582000000    -2.284000000
H     4.247000000     3.407000000    -1.999000000
H     3.174000000     2.403000000    -1.636000000
O    -3.947000000    -0.447000000    -6.617000000
H    -3.685000000    -1.293000000    -6.253000000
H    -3.925000000     0.152000000    -5.871000000
O    -1.669000000    -1.282000000     5.262000000
H    -1.699000000    -0.592000000     5.924000000
H    -0.919000000    -1.055000000     4.713000000
O    -1.728000000    -2.752000000     0.051000000
H    -1.288000000    -3.524000000     0.408000000
H    -1.018000000    -2.204000000    -0.283000000
O     0.311000000    -4.415000000     1.068000000
H     0.193000000    -5.222000000     1.568000000
H     1.165000000    -4.084000000     1.347000000
O     0.558000000    -6.676000000     3.229000000
H    -0.107000000    -6.189000000     3.717000000
H     0.903000000    -7.308000000     3.860000000
O     4.074000000    -2.986000000    -1.794000000
H     4.640000000    -2.219000000    -1.882000000
H     3.784000000    -2.966000000    -0.882000000
O    -1.791000000     1.093000000     6.570000000
H    -2.579000000     1.567000000     6.302000000
H    -1.866000000     1.024000000     7.522000000
O     2.950000000    -6.583000000    -2.712000000
H     2.754000000    -7.513000000    -2.603000000
H     3.127000000    -6.270000000    -1.825000000
O    -5.591000000     0.320000000    -3.157000000
H    -5.593000000     1.274000000    -3.233000000
H    -4.803000000     0.121000000    -2.653000000
O    -1.490000000     1.634000000    -8.706000000
H    -2.370000000     1.259000000    -8.695000000
H    -1.112000000     1.384000000    -7.863000000
O     1.769000000    -5.517000000    -4.889000000
H     2.388000000    -5.950000000    -4.301000000
H     2.090000000    -4.618000000    -4.955000000
O    -2.312000000     4.616000000     3.003000000
H    -2.388000000     5.147000000     3.796000000
H    -1.370000000     4.489000000     2.890000000
O     3.436000000    -3.446000000    -4.406000000
H     3.490000000    -3.234000000    -3.474000000
H     4.196000000    -3.013000000    -4.794000000
O     0.551000000     4.100000000     3.468000000
H     1.467000000     3.958000000     3.226000000
H     0.178000000     3.220000000     3.518000000
O    -4.441000000     4.551000000    -3.429000000
H    -5.344000000     4.440000000    -3.131000000
H    -3.954000000     3.861000000    -2.980000000
O     1.116000000     5.355000000    -3.023000000
H     0.489000000     5.105000000    -2.343000000
H     1.893000000     5.637000000    -2.540000000
O     3.476000000    -2.579000000     4.592000000
H     3.040000000    -3.384000000     4.870000000
H     3.017000000    -2.322000000     3.792000000
O    -0.257000000     4.176000000    -5.052000000
H     0.284000000     3.714000000    -5.692000000
H     0.356000000     4.446000000    -4.369000000
O    -4.118000000     0.025000000     3.400000000
H    -4.788000000    -0.498000000     2.960000000
H    -3.341000000    -0.533000000     3.403000000
O     1.891000000     4.942000000    -0.372000000
H     1.531000000     4.142000000     0.011000000
H     2.837000000     4.794000000    -0.391000000
O     4.472000000    -1.624000000     7.097000000
H     4.063000000    -2.257000000     7.686000000
H     4.428000000    -2.036000000     6.234000000
O     3.290000000    -3.541000000     0.803000000
H     4.208000000    -3.642000000     1.054000000
H     2.904000000    -3.025000000     1.511000000
O    -0.761000000     0.723000000    -6.328000000
H     0.057000000     0.239000000    -6.213000000
H    -1.439000000     0.126000000    -6.013000000
