144
-2845.11192
O     0.053000000     2.288000000     3.925000000
H    -0.180000000     1.361000000     3.880000000
H    -0.728000000     2.715000000     4.275000000
O     2.789000000     2.462000000     0.888000000
H     2.935000000     2.353000000    -0.052000000
H     1.989000000     2.985000000     0.947000000
O     4.365000000    -1.999000000     0.120000000
H     4.859000000    -2.553000000     0.724000000
H     4.005000000    -2.608000000    -0.524000000
O    -3.577000000    -0.660000000     1.891000000
H    -4.335000000    -1.041000000     2.336000000
H    -2.830000000    -0.911000000     2.434000000
O     1.321000000     5.456000000     0.420000000
H     1.058000000     5.952000000     1.195000000
H     0.504000000     5.306000000    -0.056000000
O    -1.121000000    -0.789000000    -5.321000000
H    -0.205000000    -0.983000000    -5.520000000
H    -1.187000000     0.163000000    -5.400000000
O    -4.038000000     2.301000000    -2.368000000
H    -4.390000000     1.417000000    -2.478000000
H    -3.243000000     2.310000000    -2.900000000
O     1.247000000    -5.682000000    -1.289000000
H     1.099000000    -6.377000000    -1.929000000
H     0.372000000    -5.349000000    -1.089000000
O     4.044000000    -0.173000000     2.062000000
H     3.209000000     0.282000000     1.950000000
H     4.029000000    -0.867000000     1.403000000
O    -2.891000000    -2.699000000    -3.819000000
H    -2.503000000    -2.122000000    -4.477000000
H    -3.828000000    -2.505000000    -3.854000000
O    -4.445000000     3.902000000    -4.850000000
H    -4.564000000     4.546000000    -4.152000000
H    -3.720000000     3.354000000    -4.548000000
O    -3.637000000     2.352000000     3.193000000
H    -2.926000000     1.714000000     3.125000000
H    -3.348000000     2.961000000     3.872000000
O    -1.778000000     0.440000000     6.219000000
H    -1.391000000     0.192000000     5.379000000
H    -1.710000000     1.395000000     6.240000000
O    -3.549000000    -3.149000000     3.492000000
H    -3.421000000    -4.044000000     3.179000000
H    -3.324000000    -3.185000000     4.421000000
O     4.733000000    -0.097000000    -1.613000000
H     5.655000000    -0.122000000    -1.870000000
H     4.659000000    -0.758000000    -0.925000000
O    -0.069000000    -2.709000000     5.779000000
H     0.198000000    -2.196000000     5.016000000
H     0.645000000    -2.595000000     6.406000000
O    -1.677000000    -3.110000000     0.190000000
H    -1.246000000    -3.485000000     0.959000000
H    -1.587000000    -2.164000000     0.303000000
O     2.278000000     1.536000000    -5.537000000
H     1.985000000     0.628000000    -5.607000000
H     3.040000000     1.587000000    -6.114000000
O    -3.451000000     4.921000000    -0.360000000
H    -3.616000000     3.982000000    -0.283000000
H    -3.323000000     5.217000000     0.541000000
O    -1.647000000     2.681000000    -6.658000000
H    -2.192000000     2.156000000    -7.244000000
H    -0.806000000     2.750000000    -7.109000000
O     2.503000000     3.565000000    -3.716000000
H     2.259000000     2.797000000    -4.232000000
H     2.752000000     3.211000000    -2.862000000
O     0.053000000    -0.319000000     8.152000000
H     0.550000000    -1.051000000     7.787000000
H    -0.611000000    -0.127000000     7.490000000
O     1.890000000    -2.622000000     7.636000000
H     2.602000000    -2.473000000     7.014000000
H     2.320000000    -2.644000000     8.491000000
O     4.110000000    -3.267000000     4.751000000
H     4.985000000    -3.231000000     4.364000000
H     4.211000000    -3.830000000     5.518000000
O     1.590000000    -3.861000000    -5.517000000
H     2.547000000    -3.843000000    -5.528000000
H     1.353000000    -3.461000000    -4.680000000
O    -4.474000000    -0.203000000     7.511000000
H    -4.677000000     0.245000000     8.332000000
H    -3.616000000     0.137000000     7.258000000
O    -1.965000000     3.032000000    -3.986000000
H    -1.391000000     3.740000000    -3.696000000
H    -1.798000000     2.958000000    -4.926000000
O    -0.664000000    -4.889000000     2.010000000
H    -1.312000000    -5.293000000     2.587000000
H    -0.018000000    -4.508000000     2.605000000
O     0.170000000    -5.445000000     6.007000000
H    -0.594000000    -5.205000000     6.531000000
H     0.470000000    -4.618000000     5.629000000
O     5.122000000    -4.161000000     2.012000000
H     5.189000000    -4.775000000     2.743000000
H     4.255000000    -4.326000000     1.640000000
O    -1.792000000     3.002000000     6.519000000
H    -2.654000000     2.995000000     6.934000000
H    -1.182000000     3.172000000     7.236000000
O     2.859000000    -4.830000000     0.674000000
H     2.214000000    -5.146000000     0.041000000
H     2.368000000    -4.740000000     1.491000000
O    -4.340000000    -0.393000000    -0.971000000
H    -3.866000000    -1.207000000    -0.801000000
H    -4.224000000     0.124000000    -0.174000000
O     3.792000000    -3.715000000    -1.790000000
H     4.456000000    -4.237000000    -2.240000000
H     3.061000000    -4.318000000    -1.660000000
O     4.499000000     1.695000000     5.126000000
H     4.795000000     2.103000000     4.312000000
H     3.909000000     0.996000000     4.843000000
O    -5.794000000     2.138000000    -0.002000000
H    -6.408000000     1.407000000     0.072000000
H    -5.381000000     2.020000000    -0.857000000
O     2.884000000     1.720000000    -1.735000000
H     2.153000000     1.180000000    -1.433000000
H     3.619000000     1.110000000    -1.805000000
O    -5.507000000     3.883000000     2.133000000
H    -5.693000000     3.545000000     1.256000000
H    -4.798000000     3.329000000     2.457000000
O    -0.822000000     6.239000000    -0.971000000
H    -1.709000000     5.920000000    -0.805000000
H    -0.550000000     5.786000000    -1.769000000
O    -1.171000000    -4.474000000    -2.035000000
H    -1.912000000    -4.377000000    -2.632000000
H    -1.342000000    -3.844000000    -1.336000000
O     0.409000000     5.285000000    -3.198000000
H     1.065000000     4.628000000    -3.431000000
H     0.773000000     6.111000000    -3.517000000
O    -2.892000000    -2.608000000     6.733000000
H    -3.008000000    -1.668000000     6.872000000
H    -1.967000000    -2.706000000     6.510000000
O     2.665000000    -0.834000000     5.084000000
H     2.163000000    -1.085000000     4.309000000
H     3.516000000    -1.255000000     4.964000000
O     3.361000000    -2.045000000    -3.972000000
H     3.409000000    -2.199000000    -3.029000000
H     2.564000000    -1.528000000    -4.091000000
O     1.615000000    -1.020000000    -6.082000000
H     1.620000000    -0.925000000    -7.034000000
H     1.839000000    -1.938000000    -5.932000000
O    -6.021000000     0.922000000     3.011000000
H    -6.393000000     0.442000000     2.271000000
H    -5.151000000     1.187000000     2.712000000
O     1.810000000    -4.195000000     3.472000000
H     2.682000000    -4.068000000     3.845000000
H     1.417000000    -3.322000000     3.479000000
O     0.562000000    -2.835000000    -3.431000000
H    -0.229000000    -2.400000000    -3.747000000
H     0.245000000    -3.638000000    -3.018000000
