144
-2834.86355
O     0.635000000    -0.815000000     4.406000000
H     0.892000000    -1.712000000     4.194000000
H     1.238000000    -0.268000000     3.902000000
O     7.592000000     2.982000000    -2.195000000
H     8.025000000     2.145000000    -2.361000000
H     6.673000000     2.754000000    -2.058000000
O     0.227000000     5.083000000     1.316000000
H    -0.250000000     4.733000000     0.564000000
H     0.633000000     4.317000000     1.721000000
O     1.452000000    -1.046000000    -6.369000000
H     1.833000000    -0.218000000    -6.077000000
H     2.156000000    -1.475000000    -6.857000000
O     6.231000000    -2.495000000     0.820000000
H     7.114000000    -2.348000000     1.159000000
H     6.205000000    -3.429000000     0.613000000
O     2.896000000    -5.819000000     2.215000000
H     3.483000000    -6.508000000     1.902000000
H     2.198000000    -5.783000000     1.561000000
O     2.263000000     5.296000000    -4.140000000
H     1.555000000     5.258000000    -3.497000000
H     3.018000000     4.922000000    -3.687000000
O    -2.077000000    -2.564000000    -3.105000000
H    -2.737000000    -2.694000000    -2.424000000
H    -1.359000000    -3.148000000    -2.857000000
O     5.267000000     1.880000000    -1.512000000
H     5.301000000     1.970000000    -0.559000000
H     5.423000000     0.949000000    -1.670000000
O    -6.498000000    -3.265000000    -0.014000000
H    -6.532000000    -3.429000000     0.928000000
H    -6.046000000    -2.425000000    -0.095000000
O    -2.517000000     0.338000000    -3.060000000
H    -2.127000000    -0.504000000    -2.826000000
H    -1.784000000     0.860000000    -3.387000000
O    -3.484000000    -0.849000000     5.154000000
H    -2.703000000    -1.315000000     4.856000000
H    -3.244000000    -0.504000000     6.014000000
O    -0.750000000     6.691000000    -2.693000000
H    -1.226000000     6.213000000    -3.371000000
H    -0.052000000     6.094000000    -2.423000000
O    -5.222000000    -2.955000000     2.682000000
H    -5.032000000    -2.889000000     3.618000000
H    -4.800000000    -2.186000000     2.297000000
O     3.841000000    -2.302000000    -2.738000000
H     2.907000000    -2.434000000    -2.900000000
H     4.191000000    -3.186000000    -2.626000000
O    -0.603000000     2.333000000    -4.924000000
H     0.180000000     1.862000000    -5.207000000
H    -0.466000000     3.231000000    -5.228000000
O    -3.677000000    -5.069000000     0.884000000
H    -4.136000000    -5.218000000     1.711000000
H    -2.933000000    -4.516000000     1.119000000
O    -2.908000000    -7.108000000    -0.873000000
H    -3.174000000    -6.507000000    -0.177000000
H    -3.087000000    -7.979000000    -0.519000000
O    -0.868000000    -4.242000000    -1.114000000
H    -0.937000000    -3.596000000    -0.411000000
H    -1.676000000    -4.752000000    -1.052000000
O     0.326000000     4.687000000    -6.064000000
H     1.089000000     4.946000000    -5.547000000
H    -0.072000000     5.514000000    -6.334000000
O    -0.906000000    -7.597000000     3.523000000
H    -0.465000000    -6.889000000     3.055000000
H    -1.597000000    -7.161000000     4.021000000
O     0.588000000     3.963000000     4.078000000
H     0.475000000     4.837000000     4.450000000
H    -0.047000000     3.420000000     4.545000000
O     4.008000000     4.782000000    -1.672000000
H     4.353000000     4.395000000    -0.867000000
H     4.666000000     5.428000000    -1.928000000
O     2.604000000     3.107000000     2.508000000
H     2.349000000     2.225000000     2.238000000
H     1.871000000     3.415000000     3.041000000
O    -4.021000000    -3.613000000    -1.367000000
H    -4.972000000    -3.526000000    -1.439000000
H    -3.884000000    -4.065000000    -0.534000000
O     4.889000000    -0.045000000    -4.731000000
H     4.248000000     0.642000000    -4.548000000
H     4.557000000    -0.813000000    -4.265000000
O     1.334000000     5.436000000    -1.294000000
H     1.409000000     5.960000000    -0.497000000
H     2.218000000     5.099000000    -1.443000000
O    -2.647000000     2.754000000     2.507000000
H    -2.014000000     2.624000000     3.212000000
H    -3.215000000     1.985000000     2.550000000
O     2.493000000     0.292000000     2.634000000
H     2.023000000    -0.032000000     1.866000000
H     3.389000000    -0.024000000     2.517000000
O    -0.467000000    -5.297000000     2.256000000
H    -0.174000000    -5.630000000     1.408000000
H    -0.754000000    -4.402000000     2.076000000
O    -6.542000000     2.144000000     4.131000000
H    -6.133000000     1.887000000     3.305000000
H    -5.814000000     2.442000000     4.676000000
O     0.786000000    -6.292000000    -0.247000000
H     0.534000000    -5.622000000    -0.883000000
H     1.465000000    -6.800000000    -0.691000000
O    -3.472000000     2.688000000    -1.451000000
H    -2.863000000     2.177000000    -1.983000000
H    -4.317000000     2.584000000    -1.887000000
O    -3.915000000    -3.928000000     5.719000000
H    -3.175000000    -3.471000000     5.319000000
H    -3.692000000    -4.856000000     5.648000000
O     1.914000000     1.490000000    -5.515000000
H     2.155000000     1.758000000    -4.628000000
H     2.529000000     1.956000000    -6.082000000
O     4.792000000    -1.080000000     3.072000000
H     4.935000000    -1.656000000     3.823000000
H     5.021000000    -1.616000000     2.312000000
O    -6.312000000     4.425000000    -0.477000000
H    -5.666000000     5.109000000    -0.649000000
H    -5.804000000     3.614000000    -0.459000000
O    -5.237000000    -0.462000000    -0.065000000
H    -5.821000000     0.001000000     0.536000000
H    -4.394000000    -0.482000000     0.388000000
O     3.718000000     2.508000000    -3.891000000
H     4.422000000     3.047000000    -4.252000000
H     3.692000000     2.739000000    -2.962000000
O     6.018000000    -0.851000000    -1.716000000
H     6.279000000    -1.464000000    -1.027000000
H     5.145000000    -1.143000000    -1.978000000
O    -2.505000000     4.569000000     0.490000000
H    -2.565000000     4.060000000     1.299000000
H    -2.710000000     3.942000000    -0.204000000
O     1.307000000    -2.901000000    -4.451000000
H     1.342000000    -2.395000000    -5.263000000
H     0.963000000    -3.754000000    -4.715000000
O    -3.439000000     3.009000000    -4.764000000
H    -3.761000000     3.104000000    -5.660000000
H    -2.613000000     2.534000000    -4.855000000
O    -2.017000000    -3.018000000     4.026000000
H    -2.055000000    -2.900000000     3.077000000
H    -1.102000000    -3.237000000     4.204000000
O    -3.903000000     0.359000000     2.837000000
H    -3.585000000    -0.302000000     2.222000000
H    -3.895000000    -0.082000000     3.687000000
O     1.766000000    -3.279000000     4.325000000
H     2.526000000    -2.938000000     4.797000000
H     2.059000000    -4.119000000     3.973000000
O     4.631000000     3.589000000     0.877000000
H     3.812000000     3.367000000     1.321000000
H     5.224000000     3.845000000     1.584000000
O    -5.496000000    -0.050000000    -2.953000000
H    -4.653000000    -0.107000000    -3.403000000
H    -5.267000000     0.108000000    -2.037000000
