144
-2816.93752
O    -2.878000000    -2.254000000    -4.444000000
H    -3.589000000    -1.691000000    -4.750000000
H    -2.832000000    -2.956000000    -5.093000000
O     0.556000000    -1.512000000    -6.248000000
H     0.548000000    -1.877000000    -5.364000000
H     0.644000000    -2.274000000    -6.821000000
O     1.958000000     0.894000000    -5.845000000
H     1.598000000     0.028000000    -6.035000000
H     2.605000000     0.739000000    -5.156000000
O     2.390000000     4.075000000     2.233000000
H     3.018000000     4.635000000     1.776000000
H     2.652000000     3.184000000     2.002000000
O     3.638000000    -0.033000000     4.278000000
H     4.147000000    -0.444000000     4.976000000
H     2.811000000    -0.516000000     4.269000000
O    -0.835000000     5.404000000    -2.149000000
H    -0.865000000     4.484000000    -2.413000000
H    -0.713000000     5.378000000    -1.200000000
O     3.881000000    -2.199000000     1.323000000
H     3.357000000    -2.768000000     0.759000000
H     3.272000000    -1.517000000     1.607000000
O    -7.320000000    -2.368000000     1.138000000
H    -6.660000000    -2.398000000     1.830000000
H    -6.815000000    -2.277000000     0.329000000
O    -1.174000000    -3.585000000     2.634000000
H    -0.525000000    -4.190000000     2.274000000
H    -1.975000000    -3.776000000     2.147000000
O    -3.628000000    -0.949000000     5.404000000
H    -3.575000000    -0.278000000     4.722000000
H    -2.754000000    -1.338000000     5.424000000
O    -5.910000000     0.918000000     2.482000000
H    -5.003000000     1.214000000     2.554000000
H    -5.842000000    -0.011000000     2.261000000
O    -0.236000000     1.287000000     4.838000000
H    -0.568000000     0.475000000     4.455000000
H    -0.950000000     1.915000000     4.724000000
O     7.070000000     2.889000000    -4.325000000
H     6.387000000     2.456000000    -3.813000000
H     6.653000000     3.082000000    -5.165000000
O     0.729000000     3.397000000    -4.925000000
H     0.978000000     2.572000000    -5.340000000
H     0.094000000     3.786000000    -5.527000000
O    -0.173000000    -3.568000000     5.062000000
H    -0.695000000    -3.413000000     4.275000000
H    -0.547000000    -2.980000000     5.717000000
O     6.712000000     2.753000000     2.273000000
H     6.379000000     1.866000000     2.410000000
H     5.929000000     3.283000000     2.122000000
O     1.727000000    -0.633000000     2.314000000
H     1.650000000     0.297000000     2.097000000
H     0.878000000    -1.006000000     2.074000000
O    -0.106000000     5.175000000     4.695000000
H    -0.310000000     4.254000000     4.859000000
H    -0.923000000     5.638000000     4.883000000
O     4.006000000     1.507000000     1.911000000
H     4.587000000     0.918000000     1.430000000
H     3.741000000     1.005000000     2.682000000
O    -2.628000000    -3.453000000    -1.977000000
H    -2.665000000    -3.088000000    -2.861000000
H    -3.542000000    -3.629000000    -1.752000000
O     2.842000000    -4.372000000     0.016000000
H     2.343000000    -4.391000000    -0.800000000
H     3.694000000    -4.742000000    -0.215000000
O    -7.311000000     3.132000000     1.292000000
H    -6.730000000     2.497000000     1.711000000
H    -7.557000000     2.721000000     0.463000000
O     0.395000000     4.920000000     0.456000000
H    -0.081000000     4.223000000     0.907000000
H     0.985000000     5.276000000     1.120000000
O    -3.379000000    -3.806000000     1.524000000
H    -3.540000000    -2.872000000     1.394000000
H    -4.172000000    -4.233000000     1.202000000
O     5.715000000     4.770000000    -2.344000000
H     4.774000000     4.668000000    -2.486000000
H     6.120000000     4.270000000    -3.053000000
O     5.019000000     1.867000000    -3.024000000
H     4.540000000     1.770000000    -2.200000000
H     4.659000000     1.185000000    -3.591000000
O    -3.652000000     3.874000000    -0.829000000
H    -3.675000000     4.381000000    -1.641000000
H    -4.455000000     3.353000000    -0.850000000
O    -7.179000000    -1.714000000    -1.894000000
H    -6.608000000    -0.958000000    -1.762000000
H    -7.683000000    -1.498000000    -2.679000000
O    -1.955000000     3.125000000    -3.484000000
H    -1.342000000     3.275000000    -4.203000000
H    -2.540000000     3.883000000    -3.506000000
O     2.371000000    -2.607000000    -3.673000000
H     3.029000000    -3.182000000    -4.063000000
H     1.880000000    -3.174000000    -3.078000000
O     0.812000000    -5.624000000     1.995000000
H     1.268000000    -5.357000000     1.197000000
H     1.510000000    -5.890000000     2.593000000
O     3.803000000    -0.304000000    -4.328000000
H     4.505000000    -0.701000000    -4.843000000
H     3.434000000    -1.031000000    -3.827000000
O    -4.437000000     4.521000000     5.146000000
H    -4.319000000     5.431000000     5.419000000
H    -3.837000000     4.413000000     4.409000000
O     6.746000000    -0.171000000    -1.474000000
H     6.278000000     0.486000000    -1.989000000
H     7.609000000    -0.227000000    -1.884000000
O    -5.491000000     1.881000000     5.252000000
H    -5.796000000     1.592000000     4.392000000
H    -5.292000000     2.809000000     5.135000000
O     1.374000000    -4.722000000    -2.276000000
H     1.808000000    -5.562000000    -2.129000000
H     0.460000000    -4.881000000    -2.039000000
O     0.167000000    -4.791000000    -5.271000000
H     1.071000000    -4.757000000    -5.584000000
H     0.231000000    -5.175000000    -4.396000000
O    -5.670000000    -4.977000000     0.314000000
H    -5.974000000    -4.618000000    -0.520000000
H    -6.349000000    -5.602000000     0.567000000
O     3.025000000     4.593000000    -3.904000000
H     2.581000000     5.276000000    -3.401000000
H     2.317000000     4.036000000    -4.229000000
O    -3.261000000     1.132000000    -2.117000000
H    -2.897000000     1.917000000    -2.527000000
H    -2.523000000     0.746000000    -1.645000000
O    -1.023000000    -5.496000000    -1.166000000
H    -1.613000000    -4.829000000    -1.517000000
H    -1.603000000    -6.134000000    -0.750000000
O    -5.532000000    -1.903000000     3.009000000
H    -5.370000000    -2.017000000     3.946000000
H    -4.708000000    -1.561000000     2.663000000
O    -1.286000000    -0.998000000     3.789000000
H    -1.371000000    -1.789000000     3.257000000
H    -1.684000000    -0.308000000     3.258000000
O    -2.401000000     2.711000000     3.758000000
H    -2.427000000     3.324000000     3.023000000
H    -2.821000000     1.919000000     3.423000000
O    -5.119000000    -0.393000000    -0.867000000
H    -4.642000000     0.185000000    -1.462000000
H    -4.435000000    -0.841000000    -0.369000000
O     4.893000000     4.631000000     1.132000000
H     5.316000000     5.489000000     1.162000000
H     4.944000000     4.370000000     0.213000000
O     6.282000000    -0.576000000     1.219000000
H     5.530000000    -1.168000000     1.256000000
H     6.575000000    -0.619000000     0.308000000
O    -2.839000000     4.665000000     1.791000000
H    -2.786000000     5.621000000     1.757000000
H    -2.994000000     4.402000000     0.884000000
