144
-2810.60912
O    -2.112000000    -2.394000000    -1.695000000
H    -1.700000000    -1.594000000    -1.368000000
H    -1.782000000    -3.085000000    -1.121000000
O     4.664000000    -1.033000000    -1.658000000
H     5.363000000    -1.683000000    -1.731000000
H     4.024000000    -1.293000000    -2.320000000
O     2.748000000     0.919000000     3.000000000
H     3.401000000     0.409000000     2.520000000
H     2.252000000     0.268000000     3.496000000
O     4.802000000     0.196000000    -5.640000000
H     5.136000000     0.058000000    -4.754000000
H     5.394000000    -0.305000000    -6.201000000
O    -1.420000000     5.296000000    -3.908000000
H    -1.843000000     5.906000000    -4.513000000
H    -2.110000000     4.675000000    -3.674000000
O     0.067000000     4.589000000     1.590000000
H    -0.345000000     4.457000000     0.736000000
H     0.988000000     4.369000000     1.448000000
O    -1.258000000     3.291000000    -6.101000000
H    -2.210000000     3.278000000    -6.009000000
H    -1.033000000     4.220000000    -6.145000000
O    -6.344000000     4.059000000     1.696000000
H    -5.490000000     3.642000000     1.582000000
H    -6.380000000     4.283000000     2.626000000
O    -4.820000000     0.805000000     1.908000000
H    -5.417000000     0.067000000     1.781000000
H    -3.966000000     0.399000000     2.054000000
O     3.179000000    -2.619000000    -3.694000000
H     3.341000000    -2.945000000    -4.579000000
H     2.227000000    -2.531000000    -3.642000000
O    -5.583000000    -1.949000000     1.516000000
H    -6.074000000    -2.712000000     1.209000000
H    -4.816000000    -2.318000000     1.953000000
O    -3.681000000     1.560000000    -4.517000000
H    -4.473000000     1.029000000    -4.604000000
H    -2.963000000     0.932000000    -4.597000000
O    -5.214000000     1.462000000    -0.846000000
H    -5.123000000     0.574000000    -1.193000000
H    -5.290000000     1.343000000     0.100000000
O     2.668000000     3.260000000     1.452000000
H     2.366000000     2.455000000     1.872000000
H     3.623000000     3.206000000     1.490000000
O     2.537000000    -0.216000000    -7.426000000
H     2.034000000     0.553000000    -7.158000000
H     3.194000000    -0.324000000    -6.738000000
O     4.591000000    -0.553000000     1.387000000
H     5.226000000     0.086000000     1.709000000
H     4.751000000    -0.597000000     0.445000000
O    -3.038000000     3.610000000    -2.775000000
H    -3.904000000     4.017000000    -2.811000000
H    -3.116000000     2.832000000    -3.327000000
O     0.456000000    -3.179000000    -4.195000000
H     0.294000000    -4.050000000    -4.557000000
H    -0.329000000    -2.982000000    -3.684000000
O    -0.809000000     1.582000000     6.472000000
H    -0.553000000     1.008000000     5.750000000
H    -1.761000000     1.496000000     6.520000000
O    -0.884000000    -4.918000000     1.037000000
H    -0.251000000    -4.885000000     1.754000000
H    -0.355000000    -5.085000000     0.257000000
O     5.690000000     2.891000000    -4.416000000
H     4.776000000     3.150000000    -4.298000000
H     5.871000000     2.307000000    -3.679000000
O    -1.945000000     4.164000000     5.215000000
H    -1.600000000     3.587000000     4.534000000
H    -2.893000000     4.030000000     5.185000000
O     5.615000000     4.049000000    -1.123000000
H     5.641000000     3.917000000    -0.175000000
H     5.850000000     3.196000000    -1.490000000
O    -5.714000000     1.452000000     4.452000000
H    -6.623000000     1.186000000     4.312000000
H    -5.443000000     1.828000000     3.615000000
O    -0.736000000     4.312000000    -1.085000000
H    -1.257000000     4.392000000    -1.884000000
H    -0.422000000     3.408000000    -1.094000000
O     3.618000000    -0.951000000     5.914000000
H     3.549000000    -1.812000000     6.328000000
H     2.714000000    -0.705000000     5.721000000
O    -1.749000000     2.646000000     3.147000000
H    -1.180000000     2.886000000     2.415000000
H    -1.978000000     1.731000000     2.982000000
O     0.812000000    -3.874000000     3.260000000
H     1.447000000    -3.892000000     2.544000000
H     0.309000000    -3.073000000     3.114000000
O    -3.268000000     0.609000000     5.308000000
H    -2.904000000     0.677000000     4.426000000
H    -4.214000000     0.678000000     5.183000000
O    -3.390000000     3.320000000    -0.124000000
H    -3.054000000     3.695000000    -0.938000000
H    -4.104000000     2.746000000    -0.402000000
O     1.398000000    -4.629000000    -0.332000000
H     2.016000000    -3.991000000     0.024000000
H     1.573000000    -4.632000000    -1.273000000
O    -5.189000000    -1.025000000    -1.828000000
H    -4.798000000    -1.613000000    -1.181000000
H    -5.005000000    -1.440000000    -2.670000000
O     0.845000000    -0.852000000     5.193000000
H     0.358000000    -1.225000000     4.459000000
H     0.764000000    -1.503000000     5.890000000
O    -3.025000000    -3.218000000     2.038000000
H    -2.237000000    -3.684000000     1.760000000
H    -2.725000000    -2.634000000     2.735000000
O     1.122000000     5.398000000    -3.347000000
H     1.163000000     5.786000000    -2.473000000
H     0.186000000     5.318000000    -3.530000000
O     1.242000000     1.811000000    -5.803000000
H     0.539000000     2.460000000    -5.779000000
H     0.821000000     0.991000000    -5.543000000
O     3.042000000    -5.048000000    -2.591000000
H     3.929000000    -5.273000000    -2.310000000
H     3.139000000    -4.210000000    -3.044000000
O     0.087000000    -0.559000000    -5.371000000
H     0.305000000    -1.488000000    -5.443000000
H    -0.860000000    -0.546000000    -5.227000000
O    -2.652000000    -0.198000000     7.737000000
H    -2.449000000    -1.121000000     7.586000000
H    -3.052000000     0.096000000     6.918000000
O     2.965000000     3.492000000    -4.195000000
H     2.358000000     2.912000000    -4.655000000
H     2.408000000     4.018000000    -3.622000000
O     5.873000000     1.580000000    -2.095000000
H     6.793000000     1.355000000    -2.231000000
H     5.437000000     0.738000000    -1.966000000
O     3.211000000     5.438000000    -0.406000000
H     3.836000000     4.895000000    -0.887000000
H     2.870000000     4.862000000     0.279000000
O    -2.380000000    -2.389000000     5.788000000
H    -1.766000000    -3.123000000     5.756000000
H    -2.044000000    -1.767000000     5.143000000
O    -2.626000000    -0.745000000    -4.999000000
H    -2.999000000    -1.331000000    -4.340000000
H    -2.699000000    -1.231000000    -5.820000000
O    -5.008000000    -2.354000000     5.250000000
H    -5.033000000    -2.988000000     4.534000000
H    -4.127000000    -2.439000000     5.615000000
O     2.922000000    -3.154000000     1.470000000
H     3.635000000    -3.597000000     1.931000000
H     3.163000000    -2.228000000     1.489000000
O    -1.167000000    -4.923000000     5.120000000
H    -0.293000000    -4.946000000     4.730000000
H    -1.718000000    -5.400000000     4.500000000
O    -2.154000000    -6.341000000     3.004000000
H    -1.959000000    -7.186000000     2.599000000
H    -1.977000000    -5.700000000     2.315000000
