144
-2824.52775
O     3.720000000    -1.069000000     4.484000000
H     2.887000000    -0.610000000     4.385000000
H     3.750000000    -1.675000000     3.743000000
O     3.234000000    -2.527000000    -4.421000000
H     2.640000000    -3.226000000    -4.696000000
H     3.090000000    -1.828000000    -5.059000000
O    -3.087000000    -2.063000000     0.011000000
H    -2.390000000    -1.576000000     0.450000000
H    -3.214000000    -1.604000000    -0.819000000
O     2.026000000     5.534000000     1.260000000
H     2.033000000     5.811000000     0.343000000
H     1.408000000     4.804000000     1.285000000
O    -3.122000000     5.400000000    -0.178000000
H    -3.874000000     4.824000000    -0.040000000
H    -3.500000000     6.209000000    -0.523000000
O     4.915000000    -0.907000000    -2.519000000
H     5.650000000    -1.269000000    -3.014000000
H     4.143000000    -1.337000000    -2.887000000
O    -1.934000000     5.137000000     3.392000000
H    -1.526000000     5.044000000     2.531000000
H    -2.064000000     4.238000000     3.694000000
O    -1.875000000     4.197000000    -5.318000000
H    -2.126000000     5.105000000    -5.491000000
H    -2.536000000     3.676000000    -5.774000000
O    -6.241000000     2.277000000     3.752000000
H    -6.054000000     1.347000000     3.880000000
H    -6.275000000     2.638000000     4.638000000
O     2.235000000    -0.893000000    -6.663000000
H     1.789000000    -0.046000000    -6.654000000
H     1.563000000    -1.513000000    -6.947000000
O    -4.573000000     1.911000000     1.761000000
H    -3.944000000     1.292000000     2.132000000
H    -5.136000000     2.151000000     2.497000000
O     3.765000000    -4.892000000    -2.725000000
H     4.025000000    -5.621000000    -3.287000000
H     4.069000000    -4.112000000    -3.188000000
O     4.963000000     1.269000000     3.040000000
H     4.354000000     0.756000000     2.508000000
H     5.083000000     2.082000000     2.550000000
O    -3.487000000     1.693000000    -1.966000000
H    -2.935000000     2.474000000    -1.980000000
H    -4.258000000     1.953000000    -1.462000000
O     0.621000000     2.722000000     3.275000000
H     0.619000000     2.627000000     2.323000000
H    -0.262000000     3.022000000     3.488000000
O     5.128000000    -2.982000000     0.267000000
H     5.840000000    -2.358000000     0.410000000
H     4.521000000    -2.523000000    -0.314000000
O    -2.141000000     3.878000000    -2.582000000
H    -2.194000000     4.791000000    -2.300000000
H    -2.097000000     3.924000000    -3.537000000
O     0.386000000     5.734000000    -1.637000000
H     1.141000000     5.719000000    -2.225000000
H    -0.139000000     6.475000000    -1.939000000
O    -1.633000000    -2.903000000    -2.797000000
H    -1.183000000    -3.330000000    -3.526000000
H    -1.970000000    -2.088000000    -3.168000000
O     2.829000000     2.270000000     4.653000000
H     3.444000000     1.731000000     4.156000000
H     2.127000000     2.466000000     4.032000000
O    -1.655000000     1.506000000     6.992000000
H    -1.931000000     0.620000000     7.229000000
H    -0.709000000     1.435000000     6.863000000
O     4.686000000     3.565000000     1.568000000
H     4.564000000     2.923000000     0.869000000
H     3.945000000     4.164000000     1.476000000
O     1.459000000    -4.413000000     1.339000000
H     0.814000000    -4.480000000     0.635000000
H     2.262000000    -4.774000000     0.963000000
O    -0.671000000     4.519000000     0.849000000
H    -0.354000000     4.352000000    -0.038000000
H    -1.581000000     4.794000000     0.730000000
O    -2.106000000     2.674000000     4.450000000
H    -2.046000000     2.534000000     5.395000000
H    -2.490000000     1.866000000     4.112000000
O    -0.644000000    -3.599000000     3.245000000
H     0.293000000    -3.736000000     3.101000000
H    -0.709000000    -2.697000000     3.559000000
O    -4.664000000     0.032000000     4.589000000
H    -3.895000000     0.112000000     4.024000000
H    -4.315000000    -0.275000000     5.426000000
O     0.615000000    -1.033000000     7.506000000
H     0.379000000    -1.775000000     6.951000000
H     0.997000000    -1.431000000     8.289000000
O    -7.129000000    -1.067000000     3.380000000
H    -6.644000000    -1.177000000     2.562000000
H    -6.474000000    -0.759000000     4.007000000
O     4.057000000    -5.284000000     0.114000000
H     4.628000000    -4.576000000     0.413000000
H     4.179000000    -5.306000000    -0.835000000
O    -3.385000000    -3.240000000     3.968000000
H    -4.000000000    -3.121000000     3.243000000
H    -2.522000000    -3.127000000     3.570000000
O     3.491000000    -0.046000000     1.058000000
H     3.387000000     0.575000000     0.337000000
H     2.661000000    -0.521000000     1.087000000
O     2.410000000     4.830000000    -3.882000000
H     1.782000000     4.121000000    -4.021000000
H     2.601000000     5.156000000    -4.762000000
O     0.100000000    -4.494000000    -1.001000000
H    -0.242000000    -3.652000000    -1.303000000
H     0.277000000    -4.983000000    -1.805000000
O     0.702000000     2.884000000    -5.059000000
H    -0.020000000     3.496000000    -4.917000000
H     0.277000000     2.036000000    -5.181000000
O    -1.925000000    -1.712000000     6.074000000
H    -2.131000000    -2.645000000     6.009000000
H    -1.647000000    -1.466000000     5.192000000
O     2.028000000     2.590000000     0.246000000
H     2.570000000     2.903000000    -0.478000000
H     1.225000000     2.281000000    -0.172000000
O    -3.709000000    -1.038000000     8.007000000
H    -3.171000000    -1.539000000     7.394000000
H    -3.470000000    -1.380000000     8.869000000
O     2.544000000     2.354000000    -6.854000000
H     1.926000000     2.725000000    -6.223000000
H     3.288000000     2.956000000    -6.842000000
O    -5.817000000    -1.689000000     1.012000000
H    -6.334000000    -1.406000000     0.259000000
H    -4.909000000    -1.629000000     0.716000000
O    -5.202000000     3.760000000    -0.123000000
H    -4.752000000     3.160000000     0.472000000
H    -6.037000000     3.943000000     0.309000000
O    -0.645000000    -1.253000000    -5.817000000
H    -0.933000000    -0.489000000    -6.315000000
H    -1.224000000    -1.274000000    -5.054000000
O    -1.194000000    -6.297000000     2.293000000
H    -1.050000000    -5.352000000     2.326000000
H    -1.718000000    -6.487000000     3.072000000
O     5.222000000     1.603000000    -1.392000000
H     6.149000000     1.724000000    -1.188000000
H     5.171000000     0.722000000    -1.763000000
O     3.656000000     3.764000000    -1.660000000
H     4.058000000     2.938000000    -1.928000000
H     3.247000000     4.101000000    -2.457000000
O     1.336000000    -0.135000000     3.867000000
H     1.255000000     0.814000000     3.966000000
H     0.443000000    -0.464000000     3.968000000
O    -2.617000000    -0.386000000    -3.812000000
H    -3.289000000    -0.151000000    -4.451000000
H    -2.697000000     0.277000000    -3.126000000
O     3.724000000    -3.511000000     2.586000000
H     4.280000000    -3.239000000     1.855000000
H     2.904000000    -3.784000000     2.175000000
