144
-2824.71799
O     4.033000000    -2.272000000    -4.957000000
H     3.584000000    -2.613000000    -5.731000000
H     4.055000000    -1.325000000    -5.090000000
O    -1.875000000    -2.309000000    -1.049000000
H    -1.776000000    -1.395000000    -0.782000000
H    -0.985000000    -2.662000000    -1.030000000
O     5.636000000    -0.518000000    -2.525000000
H     6.033000000    -1.347000000    -2.793000000
H     5.178000000    -0.208000000    -3.307000000
O    -0.103000000     4.549000000    -4.128000000
H    -0.410000000     5.453000000    -4.061000000
H    -0.328000000     4.157000000    -3.284000000
O    -3.180000000     4.345000000     2.304000000
H    -3.124000000     4.505000000     1.362000000
H    -2.383000000     3.857000000     2.512000000
O     0.123000000    -3.912000000    -4.898000000
H     0.858000000    -4.494000000    -5.097000000
H    -0.555000000    -4.161000000    -5.526000000
O    -1.101000000     2.633000000    -5.630000000
H    -0.813000000     3.420000000    -5.168000000
H    -1.597000000     2.139000000    -4.977000000
O    -6.051000000     2.270000000     0.955000000
H    -5.319000000     2.857000000     1.145000000
H    -6.450000000     2.101000000     1.809000000
O    -4.929000000    -0.988000000     3.702000000
H    -5.071000000    -1.924000000     3.846000000
H    -3.994000000    -0.861000000     3.861000000
O     3.735000000    -3.359000000    -2.534000000
H     3.446000000    -2.636000000    -3.090000000
H     3.878000000    -4.086000000    -3.140000000
O    -2.438000000     1.012000000    -4.061000000
H    -3.351000000     0.748000000    -3.949000000
H    -1.951000000     0.188000000    -4.080000000
O    -5.265000000    -0.199000000    -0.735000000
H    -5.466000000     0.732000000    -0.645000000
H    -4.832000000    -0.432000000     0.087000000
O     1.606000000     2.131000000     3.170000000
H     1.993000000     1.257000000     3.131000000
H     2.356000000     2.726000000     3.173000000
O     4.088000000     0.212000000    -5.382000000
H     4.509000000     0.153000000    -6.239000000
H     3.178000000     0.437000000    -5.577000000
O     4.897000000    -2.947000000     0.262000000
H     5.802000000    -2.635000000     0.265000000
H     4.667000000    -3.002000000    -0.666000000
O    -3.119000000    -4.110000000     7.798000000
H    -2.920000000    -3.445000000     7.138000000
H    -2.388000000    -4.062000000     8.414000000
O    -2.535000000     3.233000000    -2.701000000
H    -3.432000000     3.467000000    -2.940000000
H    -2.361000000     2.427000000    -3.187000000
O     0.434000000    -3.652000000    -2.080000000
H     0.124000000    -4.546000000    -1.933000000
H     0.377000000    -3.531000000    -3.028000000
O    -0.294000000     1.734000000     7.624000000
H    -0.935000000     1.375000000     7.010000000
H     0.523000000     1.286000000     7.406000000
O    -1.515000000    -5.271000000     0.415000000
H    -0.915000000    -5.212000000     1.158000000
H    -1.522000000    -6.200000000     0.186000000
O    -5.203000000     2.589000000     5.409000000
H    -5.582000000     3.358000000     4.984000000
H    -5.654000000     1.847000000     5.007000000
O     5.143000000     3.589000000    -5.301000000
H     4.228000000     3.346000000    -5.162000000
H     5.520000000     2.845000000    -5.769000000
O    -2.348000000     4.326000000     5.536000000
H    -2.028000000     3.607000000     4.991000000
H    -3.042000000     3.934000000     6.066000000
O    -6.769000000     0.994000000     3.148000000
H    -7.338000000     0.901000000     3.912000000
H    -6.143000000     0.274000000     3.226000000
O    -2.977000000     4.803000000    -0.320000000
H    -2.579000000     5.674000000    -0.320000000
H    -2.736000000     4.430000000    -1.168000000
O    -4.872000000     0.158000000    -4.194000000
H    -5.665000000     0.694000000    -4.186000000
H    -5.151000000    -0.687000000    -3.840000000
O    -0.982000000     2.830000000     3.112000000
H    -0.117000000     2.421000000     3.112000000
H    -1.595000000     2.095000000     3.082000000
O     1.578000000    -3.258000000     3.641000000
H     2.174000000    -2.649000000     3.206000000
H     0.793000000    -2.740000000     3.819000000
O    -2.772000000     1.081000000     5.681000000
H    -2.579000000     0.840000000     4.775000000
H    -3.557000000     1.625000000     5.621000000
O     0.807000000    -5.375000000     1.950000000
H     1.207000000    -4.663000000     2.449000000
H     1.096000000    -5.228000000     1.049000000
O     3.481000000    -5.020000000     4.592000000
H     3.269000000    -5.605000000     5.320000000
H     2.687000000    -4.502000000     4.463000000
O    -2.478000000    -3.766000000     2.673000000
H    -2.153000000    -3.022000000     3.179000000
H    -2.047000000    -3.683000000     1.822000000
O     1.373000000     5.817000000    -1.318000000
H     1.606000000     4.892000000    -1.248000000
H     0.723000000     5.954000000    -0.629000000
O     1.233000000     1.191000000    -6.018000000
H     1.022000000     0.258000000    -6.046000000
H     0.397000000     1.631000000    -6.172000000
O     2.257000000    -4.688000000    -0.313000000
H     3.200000000    -4.524000000    -0.272000000
H     1.953000000    -4.150000000    -1.045000000
O     0.817000000    -1.497000000    -6.172000000
H     1.472000000    -2.184000000    -6.297000000
H     0.136000000    -1.910000000    -5.640000000
O    -2.673000000    -0.694000000     7.919000000
H    -2.269000000    -1.381000000     7.389000000
H    -2.870000000     0.005000000     7.296000000
O     4.267000000     2.742000000     1.624000000
H     4.069000000     3.011000000     0.727000000
H     4.715000000     1.902000000     1.528000000
O     2.485000000     3.494000000    -4.430000000
H     2.203000000     2.648000000    -4.777000000
H     1.757000000     4.086000000    -4.624000000
O    -3.766000000    -3.823000000    -0.292000000
H    -3.194000000    -4.392000000     0.223000000
H    -3.176000000    -3.177000000    -0.680000000
O     4.127000000     1.312000000    -1.108000000
H     3.380000000     0.725000000    -1.227000000
H     4.887000000     0.785000000    -1.355000000
O     3.561000000     3.852000000    -1.612000000
H     3.787000000     2.933000000    -1.470000000
H     3.403000000     3.917000000    -2.554000000
O    -1.566000000    -2.286000000     6.008000000
H    -0.943000000    -3.013000000     6.020000000
H    -1.466000000    -1.899000000     5.138000000
O    -1.578000000    -1.363000000    -3.908000000
H    -1.672000000    -1.383000000    -2.955000000
H    -2.021000000    -2.157000000    -4.209000000
O     4.399000000    -2.364000000     5.061000000
H     4.156000000    -2.068000000     4.183000000
H     4.018000000    -3.239000000     5.132000000
O     3.550000000    -1.817000000     2.525000000
H     3.901000000    -0.963000000     2.273000000
H     3.869000000    -2.415000000     1.850000000
O     0.408000000    -3.979000000     6.686000000
H     0.980000000    -3.371000000     7.155000000
H     0.921000000    -4.784000000     6.615000000
O    -3.218000000    -6.388000000     3.085000000
H    -3.079000000    -5.446000000     2.984000000
H    -2.340000000    -6.748000000     3.210000000
