144
-2820.57027
O     2.209000000     3.951000000     1.333000000
H     1.392000000     3.577000000     1.663000000
H     2.402000000     4.672000000     1.933000000
O    -2.722000000    -4.837000000    -1.957000000
H    -3.072000000    -4.202000000    -1.332000000
H    -3.497000000    -5.222000000    -2.367000000
O     3.079000000     6.521000000     2.488000000
H     3.705000000     6.081000000     3.063000000
H     2.428000000     6.894000000     3.083000000
O     1.168000000     0.422000000    -5.778000000
H     0.841000000    -0.186000000    -6.440000000
H     0.451000000     0.500000000    -5.149000000
O     3.719000000     1.531000000    -4.498000000
H     3.362000000     0.732000000    -4.887000000
H     3.901000000     2.100000000    -5.245000000
O     0.746000000     4.610000000     4.197000000
H     1.658000000     4.356000000     4.340000000
H     0.424000000     3.987000000     3.546000000
O    -3.193000000    -2.821000000     2.310000000
H    -3.208000000    -2.038000000     2.860000000
H    -2.374000000    -3.260000000     2.542000000
O     0.812000000     7.362000000     4.448000000
H     0.357000000     6.528000000     4.335000000
H     1.373000000     7.228000000     5.212000000
O    -3.679000000    -5.014000000     0.800000000
H    -2.850000000    -5.489000000     0.734000000
H    -3.504000000    -4.316000000     1.432000000
O     0.607000000     0.803000000     7.321000000
H     1.211000000     0.667000000     6.591000000
H    -0.118000000     1.300000000     6.943000000
O     0.113000000     5.271000000     7.072000000
H     0.748000000     5.743000000     7.611000000
H     0.643000000     4.837000000     6.403000000
O     3.504000000    -0.448000000    -0.204000000
H     3.918000000    -0.717000000    -1.024000000
H     2.579000000    -0.346000000    -0.425000000
O     2.963000000    -0.977000000     4.679000000
H     3.253000000    -0.882000000     3.772000000
H     3.732000000    -1.308000000     5.143000000
O    -1.219000000     2.038000000     5.772000000
H    -2.048000000     1.560000000     5.778000000
H    -0.905000000     1.963000000     4.871000000
O    -5.003000000    -0.864000000    -4.709000000
H    -4.661000000    -0.628000000    -3.847000000
H    -5.378000000    -0.052000000    -5.049000000
O    -1.149000000     6.735000000    -0.032000000
H    -1.394000000     6.443000000     0.846000000
H    -0.281000000     6.359000000    -0.175000000
O    -4.408000000     0.563000000     1.776000000
H    -4.986000000     1.253000000     1.450000000
H    -3.895000000     0.300000000     1.012000000
O    -2.196000000     6.107000000     4.350000000
H    -2.185000000     5.649000000     5.190000000
H    -2.675000000     6.917000000     4.525000000
O    -3.604000000     0.394000000     4.239000000
H    -4.267000000     0.720000000     4.848000000
H    -3.940000000     0.627000000     3.373000000
O    -2.260000000     2.424000000    -2.330000000
H    -1.336000000     2.539000000    -2.109000000
H    -2.721000000     3.038000000    -1.758000000
O     2.421000000    -4.168000000    -0.933000000
H     1.937000000    -4.674000000    -0.281000000
H     2.534000000    -3.306000000    -0.532000000
O    -1.939000000     5.080000000     1.818000000
H    -1.322000000     4.348000000     1.809000000
H    -1.909000000     5.407000000     2.717000000
O    -1.156000000    -6.137000000     4.111000000
H    -0.464000000    -6.244000000     4.763000000
H    -0.995000000    -5.273000000     3.731000000
O    -4.409000000     3.811000000     2.918000000
H    -4.401000000     4.762000000     3.023000000
H    -3.495000000     3.581000000     2.749000000
O     2.080000000     1.619000000     4.862000000
H     2.540000000     0.783000000     4.793000000
H     1.458000000     1.612000000     4.135000000
O    -3.817000000     3.969000000    -0.430000000
H    -3.224000000     3.812000000     0.305000000
H    -4.692000000     3.921000000    -0.046000000
O     2.872000000     3.178000000    -2.278000000
H     2.935000000     2.701000000    -3.105000000
H     3.277000000     2.596000000    -1.634000000
O     4.856000000     1.212000000     1.688000000
H     3.976000000     1.512000000     1.915000000
H     4.765000000     0.846000000     0.808000000
O    -3.123000000    -0.142000000    -0.794000000
H    -2.505000000     0.556000000    -1.013000000
H    -2.577000000    -0.922000000    -0.693000000
O    -3.733000000    -2.162000000     5.261000000
H    -3.145000000    -2.007000000     6.000000000
H    -3.633000000    -1.387000000     4.709000000
O     1.830000000    -4.462000000    -3.793000000
H     2.309000000    -3.773000000    -4.252000000
H     2.363000000    -4.651000000    -3.021000000
O    -0.524000000    -6.382000000    -2.451000000
H    -1.206000000    -5.881000000    -2.002000000
H    -0.029000000    -5.726000000    -2.942000000
O    -5.204000000     0.427000000    -2.379000000
H    -4.525000000     0.305000000    -1.716000000
H    -5.266000000     1.376000000    -2.488000000
O     3.766000000    -2.541000000    -4.666000000
H     4.104000000    -2.387000000    -3.784000000
H     4.331000000    -2.017000000    -5.235000000
O     1.948000000    -3.790000000     2.893000000
H     1.825000000    -4.641000000     2.470000000
H     2.527000000    -3.310000000     2.301000000
O     5.069000000    -1.771000000    -2.381000000
H     5.609000000    -0.990000000    -2.499000000
H     5.647000000    -2.399000000    -1.948000000
O     1.099000000     5.427000000    -0.727000000
H     1.684000000     5.078000000    -0.055000000
H     1.675000000     5.634000000    -1.463000000
O     0.428000000     4.205000000    -4.090000000
H     0.317000000     3.389000000    -4.578000000
H     1.203000000     4.612000000    -4.476000000
O     1.354000000    -5.815000000     0.940000000
H     0.450000000    -6.113000000     1.041000000
H     1.883000000    -6.540000000     1.273000000
O     5.239000000     1.875000000    -1.993000000
H     5.632000000     1.010000000    -1.876000000
H     4.918000000     1.873000000    -2.895000000
O     2.576000000     3.582000000     6.680000000
H     3.510000000     3.639000000     6.476000000
H     2.282000000     2.788000000     6.234000000
O    -1.415000000    -6.461000000     1.403000000
H    -1.548000000    -6.585000000     2.342000000
H    -1.290000000    -7.345000000     1.060000000
O    -0.745000000    -1.264000000     5.336000000
H    -0.799000000    -0.574000000     4.675000000
H     0.119000000    -1.149000000     5.732000000
O    -1.526000000     0.810000000    -4.489000000
H    -2.111000000     0.809000000    -5.247000000
H    -2.025000000     1.254000000    -3.803000000
O    -1.399000000    -3.774000000    -7.281000000
H    -0.887000000    -3.527000000    -6.510000000
H    -0.744000000    -3.992000000    -7.944000000
O    -0.890000000    -3.540000000     3.534000000
H     0.057000000    -3.589000000     3.401000000
H    -0.997000000    -2.941000000     4.273000000
O    -1.360000000     5.620000000    -2.812000000
H    -0.737000000     5.143000000    -3.361000000
H    -0.938000000     5.666000000    -1.954000000
O     3.992000000    -1.933000000     2.065000000
H     3.752000000    -1.350000000     1.344000000
H     4.941000000    -2.028000000     1.990000000
