144
-2809.13094
O     3.799000000    -2.845000000    -1.803000000
H     3.666000000    -2.743000000    -0.861000000
H     3.049000000    -3.362000000    -2.097000000
O     1.159000000     5.731000000     3.852000000
H     0.814000000     5.168000000     3.159000000
H     0.523000000     6.443000000     3.921000000
O    -1.493000000     4.774000000     2.293000000
H    -0.838000000     4.119000000     2.054000000
H    -2.002000000     4.359000000     2.991000000
O     1.904000000     2.579000000     3.127000000
H     1.979000000     2.717000000     2.183000000
H     1.007000000     2.269000000     3.253000000
O    -1.965000000    -1.166000000    -4.145000000
H    -1.474000000    -0.409000000    -3.825000000
H    -2.315000000    -1.576000000    -3.354000000
O     5.322000000    -0.339000000    -1.590000000
H     4.457000000    -0.749000000    -1.598000000
H     5.934000000    -1.067000000    -1.695000000
O    -4.276000000    -0.131000000     5.026000000
H    -4.283000000    -0.693000000     5.801000000
H    -3.369000000    -0.157000000     4.720000000
O     2.312000000    -2.800000000    -4.825000000
H     2.133000000    -3.073000000    -3.925000000
H     2.984000000    -3.408000000    -5.131000000
O    -4.204000000    -0.207000000     1.737000000
H    -4.993000000    -0.046000000     2.254000000
H    -3.485000000    -0.113000000     2.362000000
O    -3.219000000    -3.149000000    -5.857000000
H    -2.719000000    -2.347000000    -5.705000000
H    -4.030000000    -2.851000000    -6.269000000
O     1.894000000    -4.510000000    -2.386000000
H     2.462000000    -5.219000000    -2.084000000
H     1.058000000    -4.671000000    -1.949000000
O     3.487000000     0.568000000     4.068000000
H     3.078000000     1.434000000     4.086000000
H     4.394000000     0.727000000     4.328000000
O     4.921000000     4.868000000    -2.066000000
H     4.602000000     5.541000000    -1.464000000
H     4.668000000     4.041000000    -1.656000000
O    -2.124000000     3.436000000     5.142000000
H    -1.604000000     3.674000000     5.910000000
H    -1.501000000     3.006000000     4.555000000
O     4.379000000     2.504000000    -1.024000000
H     5.286000000     2.200000000    -1.044000000
H     3.970000000     1.991000000    -0.326000000
O    -3.388000000     6.108000000     0.525000000
H    -4.107000000     5.481000000     0.610000000
H    -2.677000000     5.727000000     1.040000000
O     1.291000000    -1.071000000     3.690000000
H     2.074000000    -0.558000000     3.894000000
H     1.591000000    -1.980000000     3.703000000
O     1.386000000     1.241000000    -7.055000000
H     1.258000000     0.537000000    -6.419000000
H     0.713000000     1.090000000    -7.718000000
O     3.148000000     2.890000000    -6.035000000
H     2.548000000     2.284000000    -6.470000000
H     3.587000000     2.357000000    -5.372000000
O     0.177000000    -2.014000000    -8.191000000
H     0.136000000    -2.911000000    -7.860000000
H    -0.006000000    -1.469000000    -7.425000000
O     0.321000000     4.837000000    -5.301000000
H     1.009000000     4.415000000    -4.788000000
H    -0.347000000     4.159000000    -5.409000000
O    -4.051000000     2.520000000     3.534000000
H    -3.459000000     2.939000000     4.160000000
H    -3.646000000     1.672000000     3.353000000
O    -0.850000000    -4.913000000    -5.381000000
H     0.079000000    -5.062000000    -5.209000000
H    -0.948000000    -5.071000000    -6.320000000
O     1.193000000     4.025000000     6.134000000
H     0.464000000     4.321000000     6.679000000
H     1.200000000     4.632000000     5.394000000
O    -3.286000000    -2.130000000    -2.100000000
H    -3.448000000    -2.318000000    -1.176000000
H    -4.101000000    -2.373000000    -2.540000000
O    -1.519000000    -1.877000000     3.987000000
H    -0.756000000    -1.736000000     4.548000000
H    -1.856000000    -0.997000000     3.816000000
O    -5.622000000     3.335000000     5.726000000
H    -5.007000000     4.055000000     5.869000000
H    -5.239000000     2.832000000     5.007000000
O     2.014000000     4.049000000    -3.315000000
H     2.666000000     4.749000000    -3.334000000
H     2.516000000     3.260000000    -3.109000000
O     3.934000000     1.791000000    -3.608000000
H     4.146000000     1.797000000    -2.674000000
H     4.195000000     0.920000000    -3.907000000
O    -4.919000000     0.985000000    -0.828000000
H    -4.049000000     1.113000000    -1.205000000
H    -4.788000000     0.335000000    -0.138000000
O    -2.939000000    -5.401000000     0.587000000
H    -3.368000000    -6.159000000     0.190000000
H    -3.636000000    -4.751000000     0.678000000
O    -0.547000000    -5.952000000    -1.325000000
H    -1.167000000    -5.629000000    -1.979000000
H    -1.007000000    -5.857000000    -0.491000000
O    -4.338000000    -3.030000000     1.137000000
H    -4.259000000    -2.120000000     1.421000000
H    -5.175000000    -3.322000000     1.499000000
O     6.277000000    -3.896000000    -1.883000000
H     6.217000000    -4.793000000    -1.554000000
H     5.367000000    -3.618000000    -1.988000000
O    -2.332000000     1.201000000    -2.062000000
H    -1.943000000     1.352000000    -2.924000000
H    -1.590000000     0.973000000    -1.501000000
O     3.924000000     0.736000000     1.296000000
H     3.995000000     0.540000000     2.230000000
H     3.017000000     1.021000000     1.180000000
O    -6.445000000     0.247000000     3.557000000
H    -7.198000000     0.536000000     4.073000000
H    -5.724000000     0.211000000     4.185000000
O     4.483000000    -1.141000000    -4.783000000
H     4.516000000    -1.079000000    -5.738000000
H     3.653000000    -1.581000000    -4.601000000
O     2.098000000     4.163000000     0.660000000
H     2.623000000     4.961000000     0.728000000
H     1.573000000     4.288000000    -0.130000000
O     4.174000000    -3.044000000     0.908000000
H     5.055000000    -3.380000000     1.071000000
H     3.755000000    -3.043000000     1.769000000
O    -1.987000000     4.973000000    -2.705000000
H    -1.302000000     5.020000000    -2.039000000
H    -2.249000000     5.883000000    -2.844000000
O    -2.226000000    -4.776000000    -3.053000000
H    -1.674000000    -4.741000000    -3.834000000
H    -2.754000000    -3.978000000    -3.096000000
O     0.286000000    -1.103000000    -5.668000000
H     0.806000000    -1.753000000    -5.196000000
H    -0.585000000    -1.163000000    -5.276000000
O     0.383000000     1.101000000     6.131000000
H     0.522000000     2.041000000     6.245000000
H     0.037000000     1.016000000     5.242000000
O    -0.822000000     1.709000000    -4.200000000
H    -1.041000000     2.255000000    -4.955000000
H     0.126000000     1.590000000    -4.258000000
O     4.399000000     4.870000000     3.144000000
H     5.001000000     4.130000000     3.224000000
H     3.543000000     4.507000000     3.371000000
O    -3.009000000    -3.764000000     5.571000000
H    -2.746000000    -4.630000000     5.259000000
H    -2.561000000    -3.152000000     4.987000000
O    -5.001000000     3.229000000     0.849000000
H    -4.627000000     2.794000000     1.615000000
H    -5.073000000     2.537000000     0.191000000
