144
-2813.61533
O     3.130000000     3.659000000     4.077000000
H     3.119000000     2.715000000     3.914000000
H     2.539000000     3.780000000     4.820000000
O     2.350000000     2.471000000     0.431000000
H     2.295000000     1.545000000     0.666000000
H     2.665000000     2.470000000    -0.473000000
O    -2.211000000     1.463000000     5.786000000
H    -2.056000000     0.775000000     6.433000000
H    -1.568000000     1.291000000     5.097000000
O    -6.301000000     2.036000000     3.560000000
H    -5.731000000     2.210000000     4.309000000
H    -5.707000000     2.000000000     2.810000000
O     1.790000000     0.820000000    -7.358000000
H     2.006000000    -0.052000000    -7.029000000
H     2.295000000     1.417000000    -6.805000000
O    -3.317000000    -0.165000000    -6.064000000
H    -3.466000000    -0.690000000    -6.850000000
H    -2.482000000     0.274000000    -6.224000000
O    -2.421000000    -3.145000000    -0.266000000
H    -2.297000000    -2.820000000    -1.157000000
H    -1.905000000    -3.950000000    -0.230000000
O     0.001000000     4.751000000    -2.358000000
H     0.119000000     4.322000000    -1.510000000
H     0.327000000     5.641000000    -2.225000000
O     3.051000000     2.556000000    -5.719000000
H     4.007000000     2.580000000    -5.664000000
H     2.762000000     3.290000000    -5.177000000
O    -5.154000000    -0.146000000    -2.539000000
H    -4.987000000    -0.939000000    -3.048000000
H    -5.076000000    -0.427000000    -1.627000000
O    -1.925000000    -2.508000000     5.406000000
H    -1.641000000    -3.285000000     5.887000000
H    -1.613000000    -2.653000000     4.512000000
O     2.140000000    -2.696000000     7.781000000
H     1.537000000    -2.205000000     7.222000000
H     2.862000000    -2.090000000     7.946000000
O    -3.944000000     2.376000000    -2.422000000
H    -4.584000000     2.827000000    -2.972000000
H    -4.281000000     1.483000000    -2.345000000
O    -5.024000000     1.409000000     0.959000000
H    -4.679000000     0.648000000     0.491000000
H    -4.406000000     2.113000000     0.759000000
O    -1.332000000     3.104000000    -4.367000000
H    -1.880000000     2.668000000    -3.715000000
H    -0.813000000     3.731000000    -3.864000000
O     0.854000000    -3.931000000    -4.507000000
H     0.736000000    -4.879000000    -4.561000000
H     1.369000000    -3.709000000    -5.283000000
O     3.632000000     3.330000000    -2.316000000
H     3.517000000     2.449000000    -2.671000000
H     3.064000000     3.881000000    -2.855000000
O     2.170000000    -5.098000000     3.885000000
H     2.001000000    -5.483000000     4.745000000
H     1.587000000    -4.340000000     3.844000000
O     4.003000000    -2.953000000     1.904000000
H     4.924000000    -3.188000000     1.788000000
H     3.971000000    -2.530000000     2.762000000
O    -5.371000000    -0.508000000     4.748000000
H    -5.240000000     0.306000000     5.235000000
H    -4.820000000    -0.413000000     3.971000000
O    -5.525000000     4.651000000     0.826000000
H    -4.613000000     4.374000000     0.745000000
H    -5.593000000     4.995000000     1.716000000
O    -2.324000000     4.439000000     5.047000000
H    -2.473000000     3.832000000     5.772000000
H    -2.910000000     5.175000000     5.225000000
O     0.487000000    -1.128000000     6.240000000
H     0.997000000    -0.757000000     5.520000000
H    -0.117000000    -1.738000000     5.817000000
O    -4.528000000    -1.307000000    -0.085000000
H    -3.614000000    -1.574000000     0.012000000
H    -5.004000000    -2.126000000    -0.216000000
O    -0.550000000     3.800000000     3.460000000
H    -0.563000000     2.846000000     3.530000000
H    -1.316000000     4.088000000     3.956000000
O    -0.643000000    -5.281000000     0.062000000
H     0.306000000    -5.177000000     0.000000000
H    -0.773000000    -5.860000000     0.813000000
O     4.965000000    -1.760000000     4.315000000
H     5.883000000    -2.033000000     4.296000000
H     4.926000000    -1.099000000     5.006000000
O    -3.879000000    -2.370000000    -4.563000000
H    -3.512000000    -1.603000000    -5.004000000
H    -4.824000000    -2.222000000    -4.573000000
O     1.019000000     4.844000000     5.597000000
H     0.836000000     5.368000000     6.378000000
H     0.412000000     5.178000000     4.937000000
O     3.056000000     0.774000000    -2.105000000
H     3.371000000     0.129000000    -1.471000000
H     2.365000000     0.319000000    -2.586000000
O    -1.743000000    -3.689000000    -2.899000000
H    -2.185000000    -3.133000000    -3.540000000
H    -0.843000000    -3.754000000    -3.217000000
O     0.032000000     3.977000000     0.646000000
H     0.880000000     3.537000000     0.713000000
H    -0.394000000     3.805000000     1.486000000
O    -4.748000000     2.170000000     5.707000000
H    -3.824000000     1.933000000     5.626000000
H    -4.758000000     2.883000000     6.345000000
O     0.955000000     1.888000000     5.779000000
H     0.367000000     1.491000000     5.136000000
H     0.805000000     2.830000000     5.691000000
O     3.544000000    -4.248000000    -2.578000000
H     3.235000000    -4.267000000    -1.673000000
H     3.227000000    -5.067000000    -2.957000000
O    -3.128000000    -0.315000000     3.196000000
H    -2.303000000     0.150000000     3.330000000
H    -2.884000000    -1.241000000     3.199000000
O    -5.844000000     0.937000000    -4.959000000
H    -6.055000000     0.633000000    -4.076000000
H    -4.992000000     0.546000000    -5.150000000
O     1.450000000     0.227000000     8.580000000
H     0.588000000     0.023000000     8.944000000
H     1.450000000    -0.189000000     7.719000000
O     0.643000000    -2.857000000     3.228000000
H    -0.252000000    -2.646000000     2.961000000
H     1.069000000    -2.006000000     3.329000000
O    -3.044000000     3.387000000    -0.061000000
H    -3.499000000     3.099000000    -0.853000000
H    -2.116000000     3.340000000    -0.287000000
O    -1.061000000     1.415000000    -6.411000000
H    -0.182000000     1.063000000    -6.268000000
H    -1.156000000     2.099000000    -5.748000000
O     4.278000000    -2.679000000    -4.691000000
H     3.795000000    -3.357000000    -4.218000000
H     3.613000000    -2.230000000    -5.213000000
O     5.219000000     0.792000000     1.812000000
H     5.924000000     1.398000000     2.041000000
H     4.739000000     0.664000000     2.630000000
O     4.259000000    -0.862000000     0.037000000
H     4.225000000    -1.623000000     0.617000000
H     4.619000000    -0.162000000     0.582000000
O    -2.218000000    -2.910000000     2.501000000
H    -2.268000000    -2.727000000     1.562000000
H    -2.243000000    -3.865000000     2.560000000
O     3.310000000     0.931000000     3.918000000
H     3.600000000     0.637000000     4.781000000
H     2.467000000     0.497000000     3.788000000
O     5.605000000    -3.421000000    -1.021000000
H     5.163000000    -2.695000000    -0.580000000
H     4.953000000    -3.763000000    -1.632000000
O     2.621000000    -4.478000000     0.121000000
H     3.247000000    -4.120000000     0.751000000
H     1.768000000    -4.370000000     0.542000000
