144
-2784.59127
O     1.952000000    -5.181000000    -1.596000000
H     2.442000000    -4.501000000    -1.134000000
H     2.083000000    -5.970000000    -1.070000000
O     4.667000000     4.108000000     1.287000000
H     5.621000000     4.116000000     1.364000000
H     4.364000000     4.667000000     2.003000000
O    -1.272000000     3.213000000     4.935000000
H    -1.197000000     2.771000000     4.090000000
H    -0.413000000     3.101000000     5.342000000
O     1.300000000     6.171000000     4.485000000
H     1.567000000     5.600000000     5.205000000
H     0.935000000     6.945000000     4.915000000
O     3.407000000    -1.834000000    -4.867000000
H     3.451000000    -2.529000000    -5.523000000
H     3.877000000    -1.100000000    -5.263000000
O     1.478000000    -3.464000000     3.685000000
H     1.337000000    -3.968000000     4.487000000
H     1.559000000    -4.126000000     2.998000000
O     3.772000000    -1.403000000    -2.040000000
H     3.819000000    -1.475000000    -2.993000000
H     3.247000000    -0.618000000    -1.884000000
O    -1.573000000     0.301000000    -5.142000000
H    -0.680000000    -0.043000000    -5.112000000
H    -2.117000000    -0.417000000    -4.820000000
O    -0.021000000     5.413000000    -0.795000000
H    -0.923000000     5.720000000    -0.704000000
H     0.241000000     5.174000000     0.094000000
O    -4.169000000     1.320000000    -3.638000000
H    -3.619000000     0.538000000    -3.694000000
H    -4.789000000     1.127000000    -2.934000000
O    -0.177000000     3.241000000    -2.223000000
H     0.009000000     4.022000000    -1.701000000
H     0.150000000     2.515000000    -1.691000000
O    -3.390000000    -1.609000000    -4.521000000
H    -3.389000000    -1.991000000    -5.399000000
H    -3.733000000    -2.303000000    -3.958000000
O    -5.267000000     2.974000000     1.763000000
H    -4.776000000     2.153000000     1.787000000
H    -4.968000000     3.454000000     2.535000000
O    -3.339000000     4.222000000     6.196000000
H    -2.549000000     3.907000000     5.757000000
H    -3.016000000     4.817000000     6.873000000
O    -0.353000000    -3.298000000    -5.080000000
H    -0.258000000    -3.940000000    -4.376000000
H    -1.232000000    -3.452000000    -5.428000000
O     0.417000000    -5.555000000     1.677000000
H    -0.434000000    -5.338000000     2.057000000
H     0.323000000    -5.351000000     0.746000000
O     4.033000000    -0.156000000     4.093000000
H     4.744000000     0.226000000     3.577000000
H     3.256000000     0.338000000     3.832000000
O    -2.232000000    -0.027000000     5.102000000
H    -1.829000000     0.734000000     5.521000000
H    -1.492000000    -0.548000000     4.790000000
O    -1.765000000     4.418000000     2.146000000
H    -2.512000000     4.429000000     2.745000000
H    -1.134000000     3.830000000     2.561000000
O     1.633000000     1.521000000     5.677000000
H     1.547000000     1.726000000     4.746000000
H     2.560000000     1.315000000     5.793000000
O    -5.553000000    -1.406000000    -1.061000000
H    -5.687000000    -0.498000000    -1.332000000
H    -5.958000000    -1.925000000    -1.756000000
O     1.529000000     4.936000000     2.222000000
H     1.323000000     5.420000000     3.021000000
H     1.249000000     4.039000000     2.406000000
O    -2.005000000    -3.331000000     1.748000000
H    -2.107000000    -3.608000000     0.837000000
H    -2.843000000    -3.543000000     2.158000000
O    -1.490000000     7.161000000     1.351000000
H    -1.879000000     7.515000000     2.150000000
H    -1.259000000     6.260000000     1.576000000
O     5.112000000     2.853000000     4.710000000
H     4.572000000     3.605000000     4.464000000
H     4.877000000     2.678000000     5.621000000
O     2.848000000     1.200000000    -1.625000000
H     2.729000000     0.888000000    -0.728000000
H     3.120000000     2.113000000    -1.527000000
O    -3.629000000     0.556000000    -7.141000000
H    -3.344000000     0.768000000    -6.253000000
H    -3.671000000     1.401000000    -7.588000000
O     2.792000000     6.157000000    -0.067000000
H     3.049000000     5.434000000    -0.638000000
H     2.686000000     5.756000000     0.795000000
O     2.795000000     4.404000000     6.811000000
H     2.940000000     3.460000000     6.754000000
H     1.910000000     4.490000000     7.165000000
O    -6.629000000    -2.596000000    -3.076000000
H    -6.126000000    -2.304000000    -3.836000000
H    -7.536000000    -2.614000000    -3.381000000
O    -4.049000000     1.185000000     3.386000000
H    -3.702000000     0.704000000     2.634000000
H    -3.419000000     1.022000000     4.087000000
O    -3.349000000    -3.354000000    -1.199000000
H    -3.467000000    -3.575000000    -2.123000000
H    -4.197000000    -3.002000000    -0.928000000
O    -3.710000000     4.681000000     0.028000000
H    -3.087000000     4.809000000     0.744000000
H    -4.186000000     3.885000000     0.265000000
O     0.331000000    -1.069000000     4.332000000
H     0.591000000    -1.898000000     3.929000000
H     0.924000000    -0.422000000     3.951000000
O    -3.651000000    -4.152000000    -3.741000000
H    -2.712000000    -4.312000000    -3.645000000
H    -3.979000000    -4.925000000    -4.200000000
O    -0.616000000     0.327000000    -7.945000000
H    -0.792000000     0.374000000    -7.005000000
H    -0.611000000    -0.609000000    -8.142000000
O    -2.282000000     3.696000000    -3.933000000
H    -2.875000000     3.144000000    -3.423000000
H    -1.422000000     3.552000000    -3.537000000
O     6.292000000     0.695000000    -0.180000000
H     6.234000000    -0.158000000     0.251000000
H     5.677000000     1.248000000     0.301000000
O     2.988000000     1.396000000    -5.539000000
H     2.514000000     1.254000000    -4.720000000
H     2.388000000     1.914000000    -6.076000000
O    -3.941000000    -0.253000000     1.032000000
H    -3.389000000    -1.020000000     1.185000000
H    -4.422000000    -0.460000000     0.230000000
O    -1.932000000    -5.604000000    -1.152000000
H    -2.390000000    -6.319000000    -0.710000000
H    -2.576000000    -4.898000000    -1.196000000
O    -0.344000000    -5.294000000    -3.261000000
H    -0.991000000    -5.490000000    -2.584000000
H     0.485000000    -5.224000000    -2.788000000
O     4.042000000     1.345000000     1.259000000
H     4.136000000     2.297000000     1.219000000
H     3.378000000     1.198000000     1.932000000
O     4.145000000    -3.589000000    -0.018000000
H     3.941000000    -3.041000000     0.740000000
H     4.313000000    -2.966000000    -0.725000000
O     1.507000000     3.807000000    -4.236000000
H     2.232000000     3.837000000    -3.612000000
H     0.733000000     3.644000000    -3.697000000
O     4.007000000    -2.744000000     2.570000000
H     4.538000000    -2.096000000     3.033000000
H     3.332000000    -2.995000000     3.200000000
O     2.729000000    -1.896000000     5.858000000
H     2.256000000    -2.406000000     5.201000000
H     3.157000000    -1.201000000     5.359000000
O     0.732000000    -0.716000000    -5.697000000
H     0.442000000    -1.618000000    -5.834000000
H     1.634000000    -0.799000000    -5.388000000
