144
-2806.02024
O     3.571000000    -3.647000000    -3.397000000
H     4.216000000    -3.249000000    -2.812000000
H     4.062000000    -3.846000000    -4.194000000
O     1.720000000     4.584000000     4.253000000
H     1.892000000     4.262000000     5.138000000
H     1.512000000     3.798000000     3.749000000
O    -0.619000000     3.598000000     8.049000000
H    -0.159000000     3.830000000     7.242000000
H    -0.760000000     4.434000000     8.493000000
O     2.698000000    -5.235000000     3.497000000
H     2.932000000    -4.362000000     3.812000000
H     1.768000000    -5.324000000     3.707000000
O     0.891000000     3.429000000    -4.495000000
H     1.294000000     2.565000000    -4.404000000
H     1.613000000     4.045000000    -4.373000000
O    -1.662000000     3.462000000    -4.662000000
H    -1.803000000     3.570000000    -3.721000000
H    -0.710000000     3.451000000    -4.761000000
O     2.129000000     3.452000000     6.773000000
H     1.961000000     2.666000000     7.293000000
H     2.741000000     3.963000000     7.302000000
O    -1.924000000     0.845000000    -6.484000000
H    -1.202000000     0.287000000    -6.195000000
H    -1.986000000     1.523000000    -5.811000000
O    -5.895000000    -0.340000000    -1.300000000
H    -6.253000000     0.547000000    -1.267000000
H    -6.146000000    -0.668000000    -2.164000000
O    -4.165000000    -3.345000000    -2.798000000
H    -3.887000000    -3.833000000    -2.022000000
H    -3.518000000    -3.569000000    -3.466000000
O    -3.036000000     3.484000000     4.565000000
H    -2.194000000     3.788000000     4.226000000
H    -3.005000000     2.532000000     4.464000000
O     4.800000000     1.289000000     7.186000000
H     5.087000000     0.428000000     7.491000000
H     4.118000000     1.099000000     6.542000000
O    -1.961000000     6.238000000     0.770000000
H    -1.090000000     5.866000000     0.903000000
H    -2.409000000     6.105000000     1.606000000
O    -0.539000000    -3.033000000    -5.355000000
H    -0.014000000    -3.580000000    -4.770000000
H    -0.845000000    -3.634000000    -6.034000000
O    -0.978000000     0.798000000     7.414000000
H    -0.133000000     0.579000000     7.806000000
H    -1.132000000     1.708000000     7.669000000
O    -3.115000000     0.667000000     3.343000000
H    -3.749000000    -0.025000000     3.152000000
H    -2.444000000     0.237000000     3.872000000
O     4.697000000     3.304000000     0.589000000
H     4.098000000     3.086000000    -0.125000000
H     4.237000000     3.977000000     1.090000000
O    -4.542000000    -6.176000000    -1.126000000
H    -3.701000000    -5.729000000    -1.225000000
H    -5.049000000    -5.605000000    -0.549000000
O    -0.820000000    -0.109000000     4.853000000
H    -1.127000000     0.475000000     5.547000000
H    -0.139000000     0.391000000     4.404000000
O     0.773000000     5.501000000     1.173000000
H     1.551000000     5.574000000     0.620000000
H     0.884000000     4.670000000     1.635000000
O     3.568000000    -0.013000000     4.259000000
H     2.643000000     0.225000000     4.186000000
H     3.960000000     0.298000000     3.443000000
O     3.720000000     5.343000000     2.058000000
H     4.190000000     6.042000000     2.513000000
H     3.213000000     4.909000000     2.744000000
O     3.253000000     6.724000000    -0.342000000
H     3.135000000     6.366000000     0.538000000
H     4.202000000     6.762000000    -0.461000000
O    -1.722000000    -2.159000000     3.177000000
H    -1.721000000    -2.726000000     3.949000000
H    -1.247000000    -1.376000000     3.455000000
O    -1.513000000    -4.286000000     1.391000000
H    -1.415000000    -3.369000000     1.645000000
H    -1.898000000    -4.708000000     2.159000000
O     0.163000000    -6.264000000    -1.958000000
H     0.801000000    -5.991000000    -2.617000000
H     0.441000000    -7.144000000    -1.705000000
O    -2.451000000     3.728000000    -2.121000000
H    -2.478000000     4.654000000    -1.881000000
H    -3.304000000     3.386000000    -1.852000000
O    -3.442000000    -4.541000000    -5.293000000
H    -3.579000000    -4.864000000    -6.184000000
H    -3.955000000    -5.132000000    -4.743000000
O    -6.114000000    -1.762000000    -3.720000000
H    -5.386000000    -2.215000000    -3.294000000
H    -6.593000000    -2.455000000    -4.175000000
O     1.236000000    -4.818000000    -4.323000000
H     1.622000000    -5.363000000    -5.009000000
H     1.942000000    -4.228000000    -4.059000000
O    -5.743000000    -4.316000000     0.431000000
H    -4.990000000    -3.726000000     0.390000000
H    -6.190000000    -4.078000000     1.244000000
O    -1.272000000     5.108000000     3.402000000
H    -0.901000000     5.566000000     4.157000000
H    -0.515000000     4.718000000     2.964000000
O     5.378000000    -0.668000000    -0.483000000
H     4.691000000    -0.728000000     0.181000000
H     5.336000000    -1.504000000    -0.947000000
O     0.818000000    -2.416000000     6.478000000
H     0.583000000    -3.278000000     6.821000000
H    -0.021000000    -1.994000000     6.296000000
O    -4.125000000    -1.981000000     0.523000000
H    -4.238000000    -1.267000000    -0.104000000
H    -3.262000000    -2.344000000     0.319000000
O    -4.397000000     3.817000000     0.881000000
H    -3.934000000     2.989000000     0.754000000
H    -3.978000000     4.211000000     1.646000000
O     1.244000000     7.287000000     5.277000000
H     0.432000000     7.021000000     5.709000000
H     1.549000000     6.496000000     4.833000000
O     2.719000000    -2.536000000     4.298000000
H     2.070000000    -2.804000000     4.949000000
H     2.807000000    -1.592000000     4.423000000
O    -2.264000000     6.272000000    -2.007000000
H    -3.102000000     6.695000000    -2.194000000
H    -2.252000000     6.176000000    -1.054000000
O    -5.357000000     0.768000000    -4.741000000
H    -5.916000000     0.145000000    -4.277000000
H    -4.473000000     0.416000000    -4.642000000
O     2.524000000    -0.378000000    -4.163000000
H     2.695000000    -1.240000000    -3.783000000
H     3.393000000    -0.011000000    -4.326000000
O    -3.352000000     1.359000000     0.623000000
H    -3.327000000     1.163000000     1.559000000
H    -2.439000000     1.293000000     0.340000000
O    -2.108000000    -4.896000000    -1.209000000
H    -1.834000000    -4.824000000    -0.295000000
H    -1.338000000    -5.238000000    -1.663000000
O     0.564000000    -6.080000000     0.882000000
H     0.963000000    -5.499000000     0.234000000
H    -0.064000000    -5.526000000     1.346000000
O     2.934000000     2.442000000    -2.106000000
H     2.562000000     1.672000000    -2.537000000
H     2.259000000     3.115000000    -2.193000000
O     3.686000000    -2.749000000     1.249000000
H     4.448000000    -3.328000000     1.234000000
H     3.260000000    -2.937000000     2.085000000
O     4.974000000     1.302000000     2.463000000
H     5.671000000     0.935000000     1.918000000
H     4.602000000     2.008000000     1.934000000
O     0.253000000    -0.404000000    -5.790000000
H    -0.006000000    -1.324000000    -5.740000000
H     1.037000000    -0.346000000    -5.244000000
