144
-2820.49323
O    -1.686000000     3.577000000     2.755000000
H    -1.736000000     4.317000000     3.360000000
H    -1.659000000     2.806000000     3.321000000
O     2.162000000     2.854000000     4.898000000
H     1.385000000     2.751000000     5.449000000
H     1.963000000     2.353000000     4.108000000
O     2.190000000     2.684000000    -3.061000000
H     2.110000000     2.807000000    -4.006000000
H     1.628000000     3.360000000    -2.683000000
O     1.242000000     5.799000000     3.383000000
H     0.532000000     6.017000000     3.986000000
H     1.139000000     4.862000000     3.220000000
O    -3.836000000    -1.939000000    -4.842000000
H    -4.461000000    -1.858000000    -4.121000000
H    -4.049000000    -2.779000000    -5.249000000
O     3.863000000     5.321000000     0.938000000
H     4.021000000     6.125000000     1.432000000
H     3.730000000     4.650000000     1.608000000
O    -4.626000000     2.399000000    -4.062000000
H    -4.370000000     2.266000000    -3.149000000
H    -3.895000000     2.048000000    -4.570000000
O     5.481000000    -1.577000000    -2.152000000
H     6.172000000    -1.007000000    -2.490000000
H     4.679000000    -1.064000000    -2.252000000
O     4.739000000    -2.595000000     5.755000000
H     5.174000000    -1.983000000     6.349000000
H     3.912000000    -2.167000000     5.533000000
O     3.786000000     6.714000000     3.469000000
H     3.737000000     7.582000000     3.869000000
H     2.874000000     6.478000000     3.298000000
O     4.028000000     4.752000000    -1.840000000
H     3.509000000     3.976000000    -2.053000000
H     3.892000000     4.879000000    -0.901000000
O    -4.067000000    -0.698000000     2.526000000
H    -4.173000000     0.172000000     2.912000000
H    -4.383000000    -1.299000000     3.200000000
O     2.838000000    -1.350000000    -1.432000000
H     2.262000000    -0.588000000    -1.483000000
H     2.474000000    -1.968000000    -2.067000000
O    -4.192000000     1.226000000    -1.297000000
H    -4.231000000     0.293000000    -1.083000000
H    -3.947000000     1.650000000    -0.475000000
O    -0.508000000    -4.017000000     2.930000000
H    -0.953000000    -4.784000000     2.570000000
H    -1.217000000    -3.439000000     3.212000000
O     2.018000000     5.344000000     6.253000000
H     2.163000000     4.454000000     5.932000000
H     2.884000000     5.751000000     6.232000000
O     0.198000000    -5.707000000    -2.109000000
H     0.828000000    -6.182000000    -2.651000000
H    -0.372000000    -6.388000000    -1.752000000
O     1.712000000    -3.427000000    -3.170000000
H     1.143000000    -3.815000000    -2.505000000
H     1.275000000    -3.617000000    -4.000000000
O    -6.087000000     0.191000000    -5.007000000
H    -5.898000000     1.121000000    -4.880000000
H    -5.569000000    -0.252000000    -4.335000000
O    -1.404000000    -1.023000000     7.585000000
H    -0.901000000    -1.025000000     6.771000000
H    -0.843000000    -1.475000000     8.215000000
O    -0.092000000     6.690000000     1.053000000
H     0.451000000     6.139000000     1.615000000
H    -0.090000000     6.245000000     0.206000000
O     4.272000000     3.338000000     3.105000000
H     3.872000000     3.439000000     3.969000000
H     3.718000000     2.698000000     2.658000000
O    -3.745000000     3.058000000     0.706000000
H    -4.493000000     3.565000000     1.020000000
H    -3.132000000     3.055000000     1.442000000
O     0.676000000    -4.642000000    -5.774000000
H     0.448000000    -3.723000000    -5.912000000
H    -0.013000000    -5.130000000    -6.224000000
O     3.039000000    -0.457000000     5.186000000
H     2.696000000    -0.145000000     4.348000000
H     3.192000000     0.340000000     5.693000000
O    -1.877000000    -4.331000000    -3.520000000
H    -1.137000000    -4.637000000    -2.997000000
H    -1.483000000    -3.766000000    -4.185000000
O     0.453000000    -1.151000000     5.722000000
H     0.509000000    -0.849000000     4.815000000
H     1.305000000    -0.935000000     6.100000000
O    -1.245000000     1.989000000     4.724000000
H    -0.644000000     1.320000000     4.397000000
H    -0.695000000     2.570000000     5.250000000
O     5.905000000     1.345000000    -0.133000000
H     6.030000000     0.415000000     0.059000000
H     5.343000000     1.356000000    -0.908000000
O     5.987000000     0.038000000     5.666000000
H     6.561000000     0.748000000     5.378000000
H     5.121000000     0.282000000     5.339000000
O    -1.261000000    -2.544000000    -5.397000000
H    -1.011000000    -1.834000000    -5.989000000
H    -2.167000000    -2.348000000    -5.158000000
O     0.585000000     3.884000000     0.789000000
H     1.219000000     3.295000000     1.201000000
H    -0.257000000     3.633000000     1.169000000
O    -3.542000000    -3.711000000    -1.306000000
H    -3.157000000    -4.460000000    -0.851000000
H    -3.046000000    -3.645000000    -2.122000000
O     2.353000000    -2.942000000     3.302000000
H     2.806000000    -2.532000000     2.566000000
H     1.584000000    -3.356000000     2.910000000
O    -5.338000000    -1.677000000    -2.756000000
H    -5.753000000    -2.536000000    -2.828000000
H    -5.177000000    -1.566000000    -1.819000000
O    -2.655000000     0.737000000    -5.490000000
H    -2.812000000     0.492000000    -6.402000000
H    -2.938000000    -0.025000000    -4.985000000
O    -1.259000000     3.597000000    -3.623000000
H    -2.050000000     3.646000000    -3.086000000
H    -0.607000000     4.100000000    -3.134000000
O    -4.396000000    -1.164000000    -0.176000000
H    -3.870000000    -1.930000000    -0.409000000
H    -4.295000000    -1.085000000     0.773000000
O     3.538000000    -2.742000000     0.647000000
H     3.339000000    -1.994000000     0.083000000
H     2.760000000    -3.297000000     0.593000000
O     6.581000000     2.082000000     3.837000000
H     7.052000000     1.698000000     3.097000000
H     5.860000000     2.567000000     3.436000000
O     0.694000000    -3.261000000     0.233000000
H     0.243000000    -4.064000000     0.493000000
H     0.135000000    -2.556000000     0.559000000
O     0.644000000     4.609000000    -1.856000000
H     0.561000000     4.155000000    -1.017000000
H     0.885000000     5.505000000    -1.621000000
O     4.301000000     1.354000000    -2.481000000
H     4.699000000     1.742000000    -3.261000000
H     3.401000000     1.679000000    -2.485000000
O    -0.324000000    -0.850000000    -7.398000000
H    -0.066000000    -1.419000000    -8.123000000
H    -1.053000000    -0.335000000    -7.745000000
O     0.087000000     2.436000000    -6.341000000
H    -0.587000000     2.434000000    -5.662000000
H    -0.402000000     2.439000000    -7.164000000
O     0.887000000    -3.723000000     6.402000000
H     0.732000000    -2.826000000     6.107000000
H     0.048000000    -4.166000000     6.275000000
O     3.182000000     1.434000000     7.252000000
H     3.312000000     1.259000000     8.184000000
H     2.827000000     2.323000000     7.223000000
O     0.164000000     2.737000000     7.041000000
H     0.163000000     2.138000000     7.788000000
H    -0.373000000     3.476000000     7.326000000
