144
-2805.40272
O     6.144000000     0.406000000    -2.921000000
H     6.595000000     0.802000000    -3.667000000
H     5.345000000     0.033000000    -3.294000000
O    -2.545000000     2.015000000    -0.707000000
H    -2.688000000     2.318000000     0.190000000
H    -1.996000000     1.237000000    -0.612000000
O     2.352000000     4.143000000     2.126000000
H     2.027000000     4.465000000     2.967000000
H     2.361000000     3.191000000     2.222000000
O     4.766000000     2.585000000     3.654000000
H     4.023000000     2.222000000     3.173000000
H     5.318000000     2.981000000     2.980000000
O    -3.896000000     3.372000000     1.540000000
H    -4.798000000     3.268000000     1.234000000
H    -3.685000000     4.287000000     1.357000000
O    -3.287000000     1.747000000     3.659000000
H    -2.494000000     2.151000000     4.010000000
H    -3.489000000     2.257000000     2.874000000
O     1.600000000     5.582000000    -0.233000000
H     0.870000000     5.061000000    -0.568000000
H     1.834000000     5.162000000     0.595000000
O    -6.371000000     1.287000000    -2.817000000
H    -5.710000000     0.596000000    -2.849000000
H    -5.873000000     2.088000000    -2.652000000
O     3.960000000    -3.259000000    -2.454000000
H     3.386000000    -3.172000000    -1.693000000
H     3.406000000    -3.650000000    -3.130000000
O     5.048000000     0.623000000     7.210000000
H     4.924000000     0.756000000     8.150000000
H     4.266000000     1.003000000     6.809000000
O     3.469000000     3.221000000    -2.574000000
H     3.590000000     2.532000000    -3.227000000
H     2.535000000     3.426000000    -2.611000000
O     6.190000000    -2.229000000     2.870000000
H     5.405000000    -1.865000000     2.461000000
H     6.069000000    -2.068000000     3.806000000
O    -1.961000000    -3.852000000     1.234000000
H    -1.182000000    -4.250000000     0.845000000
H    -1.746000000    -3.762000000     2.163000000
O    -1.172000000    -3.514000000     3.815000000
H    -0.901000000    -2.739000000     4.308000000
H    -1.403000000    -4.156000000     4.485000000
O     2.271000000    -3.336000000    -4.677000000
H     2.293000000    -3.681000000    -5.570000000
H     2.570000000    -2.431000000    -4.762000000
O    -5.090000000    -1.885000000    -0.867000000
H    -5.460000000    -1.766000000     0.008000000
H    -4.851000000    -2.811000000    -0.902000000
O     0.161000000    -5.701000000     0.130000000
H    -0.062000000    -6.185000000    -0.665000000
H    -0.168000000    -6.249000000     0.843000000
O     1.593000000     4.553000000     4.963000000
H     0.993000000     5.292000000     5.064000000
H     2.157000000     4.596000000     5.735000000
O     0.461000000    -4.524000000    -3.335000000
H     1.154000000    -4.917000000    -2.804000000
H     0.921000000    -4.121000000    -4.071000000
O     0.008000000     4.408000000     7.927000000
H    -0.190000000     4.428000000     6.991000000
H     0.185000000     5.321000000     8.155000000
O     5.200000000     5.187000000     4.732000000
H     5.066000000     5.606000000     3.882000000
H     4.862000000     4.298000000     4.617000000
O     5.435000000     0.584000000    -0.372000000
H     5.048000000     1.458000000    -0.432000000
H     5.668000000     0.362000000    -1.273000000
O    -3.154000000     3.889000000     6.022000000
H    -2.308000000     3.605000000     5.676000000
H    -3.491000000     3.124000000     6.488000000
O     0.461000000     3.398000000    -1.737000000
H     0.022000000     2.665000000    -1.306000000
H    -0.167000000     3.700000000    -2.393000000
O    -5.173000000    -1.037000000    -3.489000000
H    -5.224000000    -1.885000000    -3.930000000
H    -5.152000000    -1.252000000    -2.556000000
O     6.683000000     3.672000000     1.723000000
H     7.464000000     4.118000000     1.395000000
H     6.177000000     3.467000000     0.937000000
O     4.527000000     3.073000000    -0.139000000
H     3.753000000     3.395000000     0.323000000
H     4.417000000     3.384000000    -1.037000000
O    -4.770000000     3.387000000    -2.408000000
H    -5.181000000     3.593000000    -1.568000000
H    -3.869000000     3.155000000    -2.183000000
O    -1.981000000    -4.893000000    -3.504000000
H    -2.357000000    -4.040000000    -3.287000000
H    -1.041000000    -4.783000000    -3.363000000
O     2.968000000     1.650000000     5.662000000
H     2.348000000     1.186000000     5.099000000
H     3.447000000     2.227000000     5.067000000
O    -3.255000000    -4.736000000    -1.002000000
H    -2.562000000    -5.044000000    -1.585000000
H    -2.790000000    -4.355000000    -0.257000000
O    -0.140000000    -0.397000000     5.832000000
H    -0.111000000     0.374000000     5.265000000
H    -0.120000000    -0.042000000     6.721000000
O    -2.605000000    -1.236000000     5.151000000
H    -1.756000000    -0.944000000     5.482000000
H    -2.717000000    -0.762000000     4.327000000
O     3.682000000     1.684000000    -4.696000000
H     4.603000000     1.801000000    -4.929000000
H     3.560000000     0.734000000    -4.672000000
O    -3.104000000    -2.196000000    -6.699000000
H    -3.355000000    -1.650000000    -7.444000000
H    -2.857000000    -1.572000000    -6.017000000
O    -0.342000000     1.071000000    -5.460000000
H    -1.102000000     0.521000000    -5.268000000
H     0.119000000     0.606000000    -6.158000000
O     5.132000000    -1.266000000     5.323000000
H     5.136000000    -0.755000000     6.133000000
H     4.211000000    -1.488000000     5.185000000
O     2.470000000    -1.785000000     5.036000000
H     2.240000000    -2.032000000     4.140000000
H     1.859000000    -1.081000000     5.254000000
O    -3.084000000     0.282000000    -4.998000000
H    -3.626000000     0.579000000    -5.728000000
H    -3.712000000     0.015000000    -4.326000000
O    -6.756000000    -1.893000000     1.249000000
H    -6.701000000    -2.274000000     2.126000000
H    -7.548000000    -2.276000000     0.871000000
O     2.471000000    -2.984000000     2.445000000
H     3.137000000    -2.330000000     2.233000000
H     1.899000000    -3.002000000     1.678000000
O     1.689000000    -3.329000000    -0.558000000
H     1.137000000    -2.588000000    -0.809000000
H     1.069000000    -4.023000000    -0.331000000
O     1.446000000     3.215000000    -4.839000000
H     2.302000000     2.792000000    -4.905000000
H     0.821000000     2.490000000    -4.834000000
O     4.250000000    -1.121000000    -4.366000000
H     4.448000000    -1.519000000    -5.213000000
H     4.176000000    -1.861000000    -3.764000000
O    -3.903000000    -4.600000000     3.312000000
H    -3.844000000    -3.646000000     3.371000000
H    -3.426000000    -4.917000000     4.079000000
O     4.106000000    -0.775000000     1.783000000
H     3.724000000     0.070000000     2.021000000
H     4.458000000    -0.639000000     0.903000000
O     1.621000000     0.587000000     7.878000000
H     1.947000000     1.058000000     7.112000000
H     2.402000000     0.409000000     8.401000000
O    -0.668000000     3.116000000     4.477000000
H    -0.290000000     2.450000000     3.902000000
H     0.003000000     3.796000000     4.528000000
