144
-2816.38657
O     1.215000000    -3.785000000    -3.189000000
H     0.437000000    -3.427000000    -3.616000000
H     1.198000000    -3.413000000    -2.308000000
O     3.205000000     5.131000000     3.898000000
H     2.839000000     4.944000000     3.034000000
H     3.876000000     4.461000000     4.024000000
O     0.944000000     2.897000000    -5.207000000
H     1.787000000     3.143000000    -5.588000000
H     0.410000000     2.633000000    -5.957000000
O     6.166000000    -1.391000000     0.661000000
H     5.882000000    -0.523000000     0.374000000
H     6.380000000    -1.279000000     1.587000000
O     4.949000000     5.321000000     0.221000000
H     5.397000000     4.764000000     0.857000000
H     5.440000000     6.142000000     0.233000000
O    -0.691000000     3.836000000    -3.174000000
H    -0.477000000     3.289000000    -3.929000000
H    -0.250000000     4.668000000    -3.348000000
O     4.640000000     2.513000000     3.274000000
H     5.005000000     1.927000000     3.937000000
H     4.112000000     1.943000000     2.715000000
O    -0.826000000    -2.130000000    -4.330000000
H    -0.755000000    -2.294000000    -5.270000000
H    -1.226000000    -1.263000000    -4.267000000
O    -1.506000000    -4.342000000    -0.505000000
H    -2.276000000    -4.223000000    -1.060000000
H    -0.965000000    -4.975000000    -0.978000000
O    -6.748000000    -0.911000000     1.076000000
H    -7.336000000    -1.228000000     0.391000000
H    -7.244000000    -1.021000000     1.888000000
O    -6.644000000     1.075000000    -1.026000000
H    -7.192000000     1.475000000    -0.351000000
H    -5.828000000     0.858000000    -0.573000000
O    -6.056000000     4.139000000    -0.698000000
H    -6.681000000     3.600000000    -0.213000000
H    -5.202000000     3.756000000    -0.497000000
O     2.925000000    -1.319000000    -2.938000000
H     2.254000000    -1.510000000    -2.282000000
H     2.761000000    -0.410000000    -3.190000000
O     5.238000000     0.854000000    -0.365000000
H     4.937000000     1.620000000    -0.853000000
H     4.584000000     0.736000000     0.324000000
O     7.541000000     0.204000000     3.524000000
H     7.687000000     1.038000000     3.971000000
H     6.635000000    -0.023000000     3.731000000
O    -3.415000000     5.404000000    -2.464000000
H    -3.409000000     5.496000000    -1.511000000
H    -2.572000000     5.002000000    -2.672000000
O    -0.658000000    -3.684000000     4.842000000
H    -0.795000000    -3.154000000     4.057000000
H    -0.742000000    -4.588000000     4.538000000
O    -2.072000000     1.388000000     4.003000000
H    -2.997000000     1.346000000     3.761000000
H    -1.650000000     1.822000000     3.261000000
O     2.777000000     1.260000000    -3.631000000
H     2.208000000     1.967000000    -3.934000000
H     3.492000000     1.705000000    -3.176000000
O    -1.954000000     0.111000000    -5.352000000
H    -1.395000000     0.109000000    -6.129000000
H    -2.033000000     1.036000000    -5.116000000
O    -4.861000000     0.439000000     3.080000000
H    -4.661000000    -0.417000000     3.459000000
H    -5.514000000     0.256000000     2.405000000
O     3.816000000    -2.954000000     1.096000000
H     3.272000000    -2.907000000     0.310000000
H     4.518000000    -2.322000000     0.939000000
O     2.470000000    -5.278000000     3.532000000
H     1.903000000    -6.035000000     3.383000000
H     2.014000000    -4.550000000     3.110000000
O     2.052000000    -2.888000000     6.127000000
H     2.487000000    -2.707000000     5.293000000
H     1.151000000    -3.101000000     5.885000000
O     2.572000000     3.757000000     0.398000000
H     3.193000000     4.346000000     0.827000000
H     2.842000000     2.881000000     0.673000000
O    -0.035000000     3.755000000    -0.481000000
H     0.901000000     3.911000000    -0.359000000
H    -0.125000000     3.556000000    -1.413000000
O     5.222000000    -3.070000000     4.037000000
H     5.692000000    -3.807000000     4.427000000
H     4.957000000    -3.385000000     3.173000000
O     6.613000000     3.861000000     1.900000000
H     7.016000000     3.204000000     1.331000000
H     6.179000000     3.351000000     2.584000000
O     7.642000000     2.190000000    -0.024000000
H     6.933000000     1.566000000    -0.177000000
H     7.583000000     2.805000000    -0.755000000
O    -3.109000000    -2.115000000    -6.363000000
H    -3.086000000    -1.418000000    -5.706000000
H    -2.201000000    -2.411000000    -6.429000000
O    -3.632000000     2.731000000     0.226000000
H    -3.259000000     2.078000000    -0.366000000
H    -2.882000000     3.067000000     0.717000000
O    -4.829000000    -2.939000000     0.673000000
H    -4.691000000    -3.008000000    -0.271000000
H    -5.418000000    -2.192000000     0.776000000
O    -2.249000000    -4.256000000    -3.201000000
H    -2.401000000    -4.914000000    -3.880000000
H    -1.627000000    -3.644000000    -3.595000000
O     4.262000000     2.889000000    -1.967000000
H     4.384000000     3.571000000    -2.627000000
H     3.911000000     3.352000000    -1.207000000
O     2.077000000     1.222000000     5.425000000
H     2.291000000     0.778000000     4.605000000
H     2.792000000     0.988000000     6.017000000
O     2.447000000    -2.233000000     3.353000000
H     2.352000000    -1.300000000     3.162000000
H     2.853000000    -2.598000000     2.567000000
O     1.159000000    -2.673000000    -0.513000000
H     0.557000000    -1.961000000    -0.297000000
H     0.765000000    -3.449000000    -0.116000000
O    -4.756000000    -3.399000000    -2.107000000
H    -5.181000000    -3.419000000    -2.964000000
H    -3.835000000    -3.582000000    -2.293000000
O     5.100000000    -0.465000000     3.649000000
H     4.202000000    -0.336000000     3.344000000
H     5.096000000    -1.335000000     4.046000000
O    -4.271000000    -4.931000000     2.570000000
H    -5.070000000    -4.716000000     3.051000000
H    -4.292000000    -4.358000000     1.804000000
O    -1.496000000    -4.723000000     2.332000000
H    -1.322000000    -4.640000000     1.394000000
H    -2.425000000    -4.513000000     2.423000000
O    -6.565000000     0.911000000    -3.858000000
H    -6.639000000     0.676000000    -2.933000000
H    -6.269000000     1.822000000    -3.850000000
O     0.272000000    -5.964000000    -1.840000000
H     0.680000000    -5.481000000    -2.559000000
H     0.128000000    -6.842000000    -2.192000000
O     3.600000000     0.020000000    -5.713000000
H     4.516000000    -0.075000000    -5.455000000
H     3.195000000     0.497000000    -4.988000000
O    -5.182000000    -2.536000000     3.900000000
H    -4.538000000    -3.057000000     4.380000000
H    -5.828000000    -2.285000000     4.560000000
O    -0.441000000     0.814000000     5.998000000
H    -0.980000000     1.237000000     5.329000000
H     0.442000000     0.816000000     5.629000000
O    -1.070000000     2.979000000     1.842000000
H    -0.521000000     2.891000000     1.063000000
H    -0.883000000     3.858000000     2.169000000
O     5.364000000    -2.221000000    -3.672000000
H     4.573000000    -2.006000000    -3.178000000
H     6.067000000    -2.194000000    -3.023000000
