144
-2801.60389
O     3.362000000     2.948000000     3.121000000
H     3.226000000     2.579000000     2.248000000
H     4.265000000     2.720000000     3.340000000
O     5.664000000    -0.981000000     0.639000000
H     6.172000000    -0.177000000     0.533000000
H     4.820000000    -0.688000000     0.983000000
O     5.183000000     5.034000000    -0.369000000
H     5.691000000     5.191000000    -1.166000000
H     5.143000000     5.888000000     0.062000000
O    -1.804000000     4.942000000     0.099000000
H    -1.794000000     5.624000000    -0.573000000
H    -2.590000000     4.429000000    -0.091000000
O     0.986000000     6.545000000    -0.114000000
H     1.433000000     5.723000000     0.090000000
H     0.290000000     6.608000000     0.540000000
O    -0.111000000     4.886000000    -2.111000000
H     0.122000000     5.443000000    -1.368000000
H     0.714000000     4.476000000    -2.371000000
O     0.896000000     1.290000000    -4.793000000
H     0.364000000     1.833000000    -5.374000000
H     1.328000000     1.915000000    -4.210000000
O     6.264000000     1.914000000     0.552000000
H     6.335000000     1.845000000     1.504000000
H     5.344000000     2.127000000     0.395000000
O    -1.297000000    -4.414000000    -2.005000000
H    -1.995000000    -4.537000000    -1.362000000
H    -1.752000000    -4.161000000    -2.808000000
O    -2.736000000    -1.849000000    -6.194000000
H    -1.957000000    -1.372000000    -6.480000000
H    -3.424000000    -1.185000000    -6.160000000
O     6.495000000    -3.225000000    -0.900000000
H     6.156000000    -2.448000000    -0.457000000
H     7.408000000    -3.282000000    -0.619000000
O    -5.812000000    -0.497000000     0.772000000
H    -6.647000000    -0.116000000     1.043000000
H    -5.657000000    -1.204000000     1.398000000
O    -5.877000000     1.584000000    -1.148000000
H    -6.776000000     1.822000000    -0.921000000
H    -5.727000000     0.755000000    -0.695000000
O     4.818000000     0.093000000     5.385000000
H     4.388000000     0.054000000     6.239000000
H     4.492000000    -0.676000000     4.917000000
O    -6.775000000     3.721000000    -2.749000000
H    -6.046000000     3.110000000    -2.639000000
H    -7.451000000     3.397000000    -2.154000000
O    -2.830000000     2.865000000    -5.270000000
H    -2.773000000     2.587000000    -4.356000000
H    -2.677000000     3.809000000    -5.244000000
O     4.177000000     1.273000000    -1.990000000
H     4.598000000     1.974000000    -2.488000000
H     4.074000000     1.634000000    -1.109000000
O     8.351000000    -0.163000000     2.739000000
H     7.460000000     0.187000000     2.734000000
H     8.398000000    -0.713000000     1.957000000
O    -2.457000000     3.596000000    -2.598000000
H    -2.848000000     3.187000000    -1.826000000
H    -1.666000000     4.022000000    -2.268000000
O     0.713000000    -2.983000000     3.796000000
H    -0.216000000    -3.183000000     3.905000000
H     0.847000000    -2.185000000     4.307000000
O    -2.495000000    -0.134000000     3.455000000
H    -2.254000000    -0.987000000     3.094000000
H    -2.152000000     0.498000000     2.824000000
O     2.722000000    -0.794000000    -3.933000000
H     1.999000000    -0.215000000    -4.176000000
H     3.163000000    -0.338000000    -3.217000000
O    -2.023000000    -2.981000000     3.738000000
H    -2.873000000    -3.080000000     4.168000000
H    -2.056000000    -3.591000000     3.001000000
O     3.625000000    -3.456000000    -2.189000000
H     2.875000000    -3.036000000    -1.767000000
H     4.266000000    -3.564000000    -1.487000000
O     2.629000000    -3.831000000     1.622000000
H     1.991000000    -3.786000000     2.334000000
H     2.232000000    -3.324000000     0.913000000
O     2.939000000    -3.465000000     5.327000000
H     3.516000000    -2.861000000     4.860000000
H     2.211000000    -3.615000000     4.724000000
O     2.393000000     4.022000000    -0.262000000
H     3.279000000     4.374000000    -0.338000000
H     2.519000000     3.100000000    -0.038000000
O     2.167000000     3.981000000    -3.623000000
H     2.517000000     3.522000000    -4.387000000
H     2.809000000     4.667000000    -3.441000000
O     8.238000000     2.571000000    -1.121000000
H     7.919000000     2.122000000    -1.903000000
H     7.692000000     2.233000000    -0.411000000
O     7.264000000     0.074000000    -2.045000000
H     6.358000000     0.230000000    -1.778000000
H     7.225000000     0.017000000    -3.000000000
O    -3.656000000     2.955000000    -0.220000000
H    -4.463000000     2.443000000    -0.270000000
H    -3.237000000     2.662000000     0.589000000
O    -5.714000000    -2.723000000     2.640000000
H    -5.189000000    -2.809000000     3.435000000
H    -6.588000000    -3.017000000     2.896000000
O    -6.327000000    -2.836000000    -0.950000000
H    -7.224000000    -2.562000000    -1.141000000
H    -5.917000000    -2.061000000    -0.566000000
O    -2.801000000    -3.145000000    -3.874000000
H    -3.752000000    -3.228000000    -3.797000000
H    -2.667000000    -2.670000000    -4.694000000
O     1.309000000     1.720000000     4.430000000
H     1.273000000     2.411000000     5.092000000
H     2.076000000     1.937000000     3.899000000
O     4.369000000    -1.850000000     3.587000000
H     4.004000000    -1.288000000     2.904000000
H     4.775000000    -2.573000000     3.110000000
O     1.290000000     4.901000000     3.438000000
H     2.089000000     4.448000000     3.166000000
H     1.574000000     5.485000000     4.141000000
O    -2.684000000    -6.319000000     1.952000000
H    -1.920000000    -5.770000000     1.775000000
H    -3.122000000    -6.400000000     1.105000000
O     1.460000000    -2.601000000    -1.038000000
H     1.222000000    -1.740000000    -0.694000000
H     0.947000000    -2.688000000    -1.842000000
O    -5.659000000    -4.337000000    -3.288000000
H    -5.680000000    -3.764000000    -2.521000000
H    -6.384000000    -4.033000000    -3.834000000
O     5.642000000     1.096000000     3.010000000
H     4.863000000     1.022000000     2.458000000
H     5.533000000     0.410000000     3.669000000
O    -2.119000000     0.012000000     5.956000000
H    -2.409000000    -0.129000000     5.055000000
H    -2.900000000    -0.146000000     6.487000000
O     5.194000000    -4.521000000     2.574000000
H     4.974000000    -5.080000000     3.318000000
H     4.392000000    -4.490000000     2.051000000
O    -0.027000000     4.137000000    -5.317000000
H     0.630000000     4.215000000    -4.625000000
H    -0.700000000     4.776000000    -5.082000000
O    -0.947000000    -4.302000000     0.997000000
H    -0.739000000    -4.328000000     0.063000000
H    -0.543000000    -3.492000000     1.309000000
O    -5.162000000    -0.931000000    -3.483000000
H    -5.643000000    -0.121000000    -3.659000000
H    -4.622000000    -0.727000000    -2.719000000
O     0.455000000    -0.691000000     5.156000000
H    -0.464000000    -0.448000000     5.269000000
H     0.899000000     0.135000000     4.962000000
O    -1.905000000     1.988000000     1.866000000
H    -1.231000000     1.411000000     1.507000000
H    -1.527000000     2.865000000     1.803000000
