144
-2801.12452
O     5.790000000    -6.270000000     0.936000000
H     5.497000000    -5.360000000     0.890000000
H     6.365000000    -6.298000000     1.701000000
O     5.202000000     3.852000000     1.963000000
H     4.680000000     4.653000000     2.017000000
H     4.556000000     3.146000000     1.951000000
O     0.299000000     2.451000000    -4.506000000
H     0.925000000     2.651000000    -3.810000000
H    -0.339000000     3.163000000    -4.467000000
O     4.671000000    -3.734000000     0.512000000
H     5.104000000    -3.050000000     0.002000000
H     3.814000000    -3.367000000     0.727000000
O     0.583000000    -5.717000000     3.729000000
H    -0.025000000    -6.455000000     3.787000000
H     1.442000000    -6.100000000     3.907000000
O     4.519000000    -4.762000000     3.399000000
H     4.174000000    -4.163000000     4.061000000
H     4.794000000    -4.193000000     2.680000000
O    -0.904000000     5.783000000    -2.594000000
H    -1.069000000     6.418000000    -1.898000000
H    -1.427000000     6.095000000    -3.333000000
O     3.408000000     2.016000000     0.903000000
H     2.552000000     2.029000000     1.332000000
H     3.597000000     1.086000000     0.777000000
O    -2.689000000    -1.925000000    -3.661000000
H    -1.882000000    -2.066000000    -3.166000000
H    -2.571000000    -1.069000000    -4.073000000
O    -5.236000000    -1.220000000    -2.093000000
H    -5.016000000    -0.625000000    -1.377000000
H    -4.456000000    -1.226000000    -2.647000000
O    -2.032000000    -1.399000000    -6.414000000
H    -2.093000000    -0.569000000    -5.941000000
H    -1.492000000    -1.956000000    -5.853000000
O    -2.254000000     0.638000000    -4.461000000
H    -2.907000000     1.179000000    -4.904000000
H    -1.514000000     1.227000000    -4.314000000
O    -2.239000000     3.842000000    -4.567000000
H    -2.850000000     3.639000000    -3.859000000
H    -2.295000000     4.793000000    -4.667000000
O     3.860000000     2.428000000    -1.843000000
H     4.032000000     2.412000000    -0.901000000
H     4.188000000     1.587000000    -2.161000000
O     5.126000000    -4.742000000    -2.275000000
H     4.896000000    -4.445000000    -1.395000000
H     5.939000000    -5.234000000    -2.159000000
O     6.647000000     0.587000000     3.830000000
H     6.285000000    -0.082000000     3.250000000
H     5.953000000     0.753000000     4.467000000
O    -5.122000000     5.637000000    -1.109000000
H    -5.407000000     6.317000000    -0.498000000
H    -5.518000000     5.883000000    -1.944000000
O    -5.518000000     2.756000000    -4.967000000
H    -5.806000000     3.441000000    -5.570000000
H    -5.000000000     2.161000000    -5.509000000
O     3.683000000    -2.592000000    -3.781000000
H     3.792000000    -2.740000000    -4.720000000
H     4.262000000    -3.233000000    -3.369000000
O     7.000000000     2.831000000    -0.645000000
H     6.462000000     3.180000000     0.066000000
H     7.686000000     3.488000000    -0.770000000
O     5.613000000    -0.979000000     2.062000000
H     5.444000000    -1.759000000     2.590000000
H     4.893000000    -0.955000000     1.433000000
O    -4.224000000     3.435000000    -2.673000000
H    -4.826000000     3.151000000    -3.361000000
H    -4.693000000     4.134000000    -2.217000000
O    -0.097000000    -3.242000000     4.340000000
H    -0.946000000    -3.325000000     4.774000000
H     0.212000000    -4.143000000     4.244000000
O    -0.590000000     4.597000000     0.398000000
H     0.167000000     5.074000000     0.059000000
H    -1.240000000     4.650000000    -0.302000000
O     8.179000000    -0.217000000     0.437000000
H     7.248000000    -0.301000000     0.641000000
H     8.459000000     0.565000000     0.914000000
O     0.505000000     2.478000000     1.708000000
H     0.056000000     3.163000000     1.212000000
H     0.070000000     1.667000000     1.445000000
O    -5.043000000    -1.914000000     1.440000000
H    -4.389000000    -2.599000000     1.580000000
H    -5.858000000    -2.291000000     1.770000000
O     3.643000000     3.872000000    -4.791000000
H     4.502000000     3.668000000    -4.422000000
H     3.021000000     3.608000000    -4.112000000
O     6.626000000     1.414000000    -3.411000000
H     6.315000000     2.244000000    -3.049000000
H     6.019000000     0.760000000    -3.064000000
O    -3.058000000     4.791000000     1.951000000
H    -3.550000000     4.394000000     1.232000000
H    -2.183000000     4.936000000     1.591000000
O     3.357000000     2.770000000     4.426000000
H     3.725000000     1.956000000     4.083000000
H     4.121000000     3.318000000     4.611000000
O     4.159000000    -0.293000000    -2.542000000
H     4.227000000    -0.529000000    -1.617000000
H     3.935000000    -1.112000000    -2.982000000
O    -0.482000000    -2.166000000    -2.123000000
H    -0.297000000    -1.437000000    -1.532000000
H    -0.632000000    -2.913000000    -1.543000000
O    -5.690000000     0.470000000     0.680000000
H    -5.369000000    -0.405000000     0.899000000
H    -5.153000000     1.061000000     1.207000000
O    -4.124000000     1.078000000     2.941000000
H    -3.972000000     0.310000000     3.491000000
H    -3.589000000     1.766000000     3.336000000
O     6.344000000    -2.327000000    -1.449000000
H     6.571000000    -2.881000000    -2.196000000
H     7.068000000    -1.704000000    -1.384000000
O    -7.559000000    -2.718000000    -1.222000000
H    -6.755000000    -2.261000000    -1.470000000
H    -7.574000000    -2.674000000    -0.265000000
O    -3.237000000    -4.956000000    -0.166000000
H    -2.377000000    -4.655000000    -0.458000000
H    -3.634000000    -5.341000000    -0.948000000
O     1.258000000    -4.589000000     1.079000000
H     1.758000000    -3.841000000     1.407000000
H     1.036000000    -5.091000000     1.863000000
O     0.322000000    -1.998000000    -4.926000000
H     0.421000000    -2.676000000    -4.257000000
H     0.811000000    -1.250000000    -4.583000000
O    -0.642000000    -4.416000000    -0.791000000
H    -0.010000000    -4.302000000    -0.081000000
H    -0.273000000    -5.113000000    -1.332000000
O     1.899000000    -1.469000000     4.145000000
H     2.291000000    -1.543000000     3.275000000
H     1.194000000    -2.117000000     4.146000000
O     1.608000000     3.833000000    -2.631000000
H     1.527000000     4.721000000    -2.284000000
H     2.297000000     3.430000000    -2.102000000
O    -8.457000000     0.922000000     0.323000000
H    -8.576000000     1.870000000     0.386000000
H    -7.522000000     0.809000000     0.151000000
O    -2.226000000    -0.752000000     5.132000000
H    -1.519000000    -1.095000000     5.679000000
H    -3.028000000    -1.018000000     5.582000000
O     3.818000000     0.188000000     4.597000000
H     3.159000000    -0.453000000     4.330000000
H     4.247000000    -0.211000000     5.354000000
O    -2.249000000     1.948000000     4.810000000
H    -2.238000000     0.994000000     4.744000000
H    -1.331000000     2.206000000     4.725000000
O     1.696000000     0.071000000    -4.127000000
H     1.296000000     0.922000000    -4.309000000
H     2.313000000     0.244000000    -3.416000000
