144
-2820.66353
O     8.313000000     0.161000000     2.915000000
H     7.451000000     0.543000000     3.083000000
H     8.565000000     0.506000000     2.058000000
O    -2.622000000     3.325000000     0.528000000
H    -2.577000000     4.270000000     0.386000000
H    -2.417000000     2.944000000    -0.326000000
O     5.793000000    -0.446000000    -1.732000000
H     6.562000000    -0.973000000    -1.949000000
H     6.149000000     0.409000000    -1.493000000
O     0.069000000    -4.903000000    -0.479000000
H     0.982000000    -4.615000000    -0.467000000
H     0.049000000    -5.658000000     0.109000000
O     3.468000000    -4.733000000    -0.321000000
H     4.342000000    -5.055000000    -0.540000000
H     3.568000000    -3.782000000    -0.270000000
O    -1.573000000     0.626000000    -4.281000000
H    -1.798000000    -0.114000000    -4.845000000
H    -0.618000000     0.602000000    -4.223000000
O    -5.438000000    -0.470000000    -3.395000000
H    -5.290000000    -0.027000000    -2.560000000
H    -5.775000000     0.214000000    -3.974000000
O    -4.298000000     3.499000000    -1.921000000
H    -4.571000000     2.582000000    -1.886000000
H    -4.958000000     3.965000000    -1.408000000
O     4.243000000    -1.864000000     0.259000000
H     3.747000000    -1.164000000     0.684000000
H     4.825000000    -1.409000000    -0.350000000
O     5.415000000     1.899000000     5.767000000
H     5.788000000     1.021000000     5.694000000
H     4.988000000     2.049000000     4.924000000
O    -5.842000000     1.288000000    -1.363000000
H    -6.142000000     0.580000000    -0.792000000
H    -6.582000000     1.893000000    -1.404000000
O     3.536000000     2.220000000    -2.099000000
H     3.372000000     1.841000000    -1.235000000
H     4.383000000     2.657000000    -2.012000000
O     1.200000000     0.854000000    -3.514000000
H     1.951000000     0.269000000    -3.417000000
H     1.246000000     1.433000000    -2.754000000
O    -2.489000000    -6.334000000     1.081000000
H    -1.898000000    -5.668000000     1.431000000
H    -3.104000000    -5.845000000     0.534000000
O     2.285000000     4.707000000     0.652000000
H     2.423000000     3.792000000     0.895000000
H     2.761000000     5.205000000     1.316000000
O     5.172000000    -3.313000000     2.340000000
H     6.016000000    -3.621000000     2.009000000
H     4.740000000    -2.931000000     1.576000000
O    -3.114000000    -1.651000000    -5.909000000
H    -2.228000000    -2.005000000    -5.835000000
H    -3.529000000    -2.184000000    -6.586000000
O    -6.842000000    -0.826000000     0.308000000
H    -6.104000000    -0.529000000     0.840000000
H    -6.646000000    -1.744000000     0.119000000
O    -2.997000000    -2.504000000     3.132000000
H    -3.399000000    -2.303000000     2.287000000
H    -3.277000000    -1.791000000     3.706000000
O    -4.339000000    -0.354000000     1.913000000
H    -3.442000000    -0.201000000     1.615000000
H    -4.431000000     0.202000000     2.687000000
O     4.523000000     3.683000000     3.210000000
H     4.482000000     4.443000000     3.790000000
H     3.610000000     3.420000000     3.094000000
O     4.404000000     4.046000000    -4.585000000
H     5.144000000     3.456000000    -4.443000000
H     3.987000000     4.120000000    -3.726000000
O     2.441000000    -0.930000000     4.010000000
H     1.584000000    -0.504000000     3.991000000
H     2.842000000    -0.699000000     3.172000000
O     0.187000000     5.820000000    -0.789000000
H     0.884000000     5.418000000    -0.271000000
H     0.404000000     5.600000000    -1.695000000
O    -0.029000000    -2.619000000    -2.768000000
H    -0.061000000    -3.221000000    -2.024000000
H    -0.308000000    -1.777000000    -2.408000000
O     0.407000000     4.754000000    -4.744000000
H    -0.068000000     4.871000000    -5.567000000
H    -0.201000000     4.275000000    -4.182000000
O     3.506000000    -0.488000000    -3.450000000
H     4.196000000    -0.920000000    -2.947000000
H     3.722000000     0.443000000    -3.402000000
O    -4.786000000     1.485000000     3.838000000
H    -5.487000000     1.759000000     4.429000000
H    -4.507000000     2.293000000     3.407000000
O    -2.456000000     5.873000000    -0.563000000
H    -2.909000000     6.311000000    -1.284000000
H    -1.533000000     6.092000000    -0.692000000
O     6.788000000     1.903000000    -0.813000000
H     7.739000000     2.009000000    -0.836000000
H     6.475000000     2.653000000    -0.308000000
O    -1.789000000    -5.779000000    -2.460000000
H    -1.337000000    -5.447000000    -3.235000000
H    -1.166000000    -5.650000000    -1.745000000
O    -6.610000000    -2.440000000     2.920000000
H    -6.235000000    -2.767000000     3.738000000
H    -6.161000000    -2.937000000     2.236000000
O    -0.635000000    -3.154000000    -5.418000000
H    -0.459000000    -2.751000000    -4.568000000
H     0.157000000    -2.990000000    -5.929000000
O     5.497000000     0.838000000     2.935000000
H     5.484000000     1.773000000     2.730000000
H     4.766000000     0.474000000     2.436000000
O    -5.531000000    -3.677000000     0.879000000
H    -4.632000000    -3.834000000     0.590000000
H    -6.017000000    -4.444000000     0.575000000
O     1.448000000    -3.637000000     4.093000000
H     1.507000000    -4.018000000     4.969000000
H     1.882000000    -2.787000000     4.172000000
O    -1.367000000     2.056000000     2.648000000
H    -2.154000000     2.041000000     2.105000000
H    -1.136000000     2.983000000     2.710000000
O    -0.067000000     0.025000000     4.167000000
H    -0.377000000     0.491000000     3.390000000
H     0.040000000     0.708000000     4.829000000
O    -1.728000000     3.377000000    -3.537000000
H    -1.439000000     2.466000000    -3.497000000
H    -2.680000000     3.324000000    -3.617000000
O     3.299000000     4.881000000    -2.066000000
H     3.534000000     5.045000000    -1.152000000
H     2.987000000     3.976000000    -2.075000000
O    -5.888000000    -2.644000000    -5.061000000
H    -5.120000000    -2.576000000    -5.629000000
H    -5.783000000    -1.930000000    -4.431000000
O    -1.177000000    -4.469000000     2.768000000
H    -1.848000000    -3.878000000     3.110000000
H    -0.354000000    -4.001000000     2.905000000
O    -3.988000000    -4.730000000    -1.132000000
H    -4.485000000    -4.327000000    -1.843000000
H    -3.319000000    -5.254000000    -1.574000000
O     3.529000000    -5.474000000     3.959000000
H     2.583000000    -5.344000000     4.029000000
H     3.877000000    -4.604000000     3.763000000
O     5.635000000     6.452000000    -0.462000000
H     6.482000000     6.503000000    -0.904000000
H     5.623000000     5.580000000    -0.068000000
O     5.199000000     3.690000000     0.558000000
H     5.233000000     3.899000000     1.492000000
H     4.705000000     2.871000000     0.515000000
O     1.717000000     3.809000000     4.405000000
H     1.021000000     4.375000000     4.071000000
H     1.315000000     3.344000000     5.139000000
O     4.442000000    -1.766000000     5.719000000
H     3.649000000    -1.419000000     5.309000000
H     5.042000000    -1.917000000     4.988000000
