144
-2803.05912
O    -2.037000000    -2.207000000    -3.069000000
H    -1.930000000    -2.589000000    -2.198000000
H    -2.575000000    -1.429000000    -2.925000000
O    -0.169000000     4.194000000    -3.566000000
H     0.578000000     4.523000000    -3.066000000
H    -0.911000000     4.717000000    -3.261000000
O     0.283000000     8.022000000     1.295000000
H    -0.490000000     7.815000000     0.771000000
H     0.043000000     8.814000000     1.776000000
O     1.086000000     6.390000000    -1.773000000
H     1.497000000     6.738000000    -2.564000000
H     1.720000000     6.563000000    -1.077000000
O     5.466000000     3.987000000    -1.554000000
H     6.379000000     3.952000000    -1.837000000
H     5.017000000     3.354000000    -2.114000000
O     4.141000000    -3.043000000     1.170000000
H     4.309000000    -3.484000000     2.002000000
H     3.807000000    -2.181000000     1.418000000
O     0.513000000     6.115000000     3.311000000
H    -0.057000000     5.475000000     2.884000000
H     0.578000000     6.834000000     2.683000000
O    -2.017000000    -6.035000000     1.394000000
H    -1.435000000    -6.515000000     1.982000000
H    -1.549000000    -5.222000000     1.203000000
O    -4.375000000    -7.843000000     1.921000000
H    -4.762000000    -7.740000000     2.790000000
H    -3.759000000    -7.114000000     1.846000000
O    -3.867000000    -2.383000000     1.398000000
H    -4.488000000    -1.788000000     0.976000000
H    -3.255000000    -2.623000000     0.703000000
O    -2.770000000     7.287000000     0.934000000
H    -2.448000000     6.393000000     1.056000000
H    -3.315000000     7.239000000     0.149000000
O    -5.444000000    -1.224000000    -0.416000000
H    -5.523000000    -2.055000000    -0.885000000
H    -6.308000000    -0.820000000    -0.497000000
O    -6.668000000    -6.327000000     0.190000000
H    -6.040000000    -5.604000000     0.199000000
H    -6.808000000    -6.535000000     1.113000000
O    -2.556000000    -5.397000000    -3.454000000
H    -3.008000000    -6.171000000    -3.116000000
H    -2.762000000    -4.707000000    -2.823000000
O     1.450000000    -5.731000000     0.085000000
H     0.825000000    -5.069000000     0.379000000
H     2.048000000    -5.256000000    -0.492000000
O    -4.298000000     1.625000000    -0.418000000
H    -4.489000000     1.437000000    -1.337000000
H    -4.773000000     0.950000000     0.067000000
O     0.384000000    -7.907000000     1.547000000
H     0.969000000    -7.234000000     1.199000000
H     0.081000000    -8.383000000     0.774000000
O    -2.896000000     0.952000000     3.277000000
H    -2.490000000     0.151000000     2.945000000
H    -3.835000000     0.816000000     3.147000000
O     6.769000000     2.387000000     0.390000000
H     7.015000000     3.084000000     0.998000000
H     6.017000000     2.738000000    -0.086000000
O    -0.569000000    -2.059000000    -5.615000000
H    -0.251000000    -2.961000000    -5.661000000
H    -1.255000000    -2.080000000    -4.948000000
O    -3.747000000     5.495000000    -2.227000000
H    -2.923000000     5.883000000    -2.521000000
H    -3.506000000     4.973000000    -1.461000000
O     4.225000000    -6.203000000     1.374000000
H     3.304000000    -6.086000000     1.142000000
H     4.377000000    -5.572000000     2.078000000
O    -3.091000000     4.112000000    -0.009000000
H    -3.452000000     3.259000000    -0.250000000
H    -2.666000000     3.962000000     0.835000000
O     4.468000000     3.730000000     5.299000000
H     4.551000000     4.611000000     5.665000000
H     4.058000000     3.863000000     4.445000000
O    -2.162000000     3.625000000     2.390000000
H    -2.253000000     2.765000000     2.800000000
H    -2.888000000     4.138000000     2.746000000
O    -0.288000000    -0.482000000     3.072000000
H     0.489000000    -0.212000000     3.561000000
H    -0.051000000    -0.351000000     2.154000000
O    -4.671000000     3.385000000    -3.364000000
H    -4.618000000     4.244000000    -2.946000000
H    -3.764000000     3.086000000    -3.413000000
O     1.884000000     0.828000000     3.608000000
H     1.736000000     0.699000000     4.545000000
H     2.758000000     0.472000000     3.452000000
O    -3.987000000    -2.245000000     4.009000000
H    -4.677000000    -1.602000000     4.174000000
H    -3.975000000    -2.344000000     3.057000000
O    -4.367000000     0.087000000    -3.521000000
H    -4.064000000     0.931000000    -3.857000000
H    -5.306000000     0.209000000    -3.381000000
O     3.824000000    -1.272000000     4.580000000
H     3.377000000    -2.118000000     4.613000000
H     4.270000000    -1.204000000     5.423000000
O     0.950000000     0.239000000    -5.811000000
H     0.289000000    -0.453000000    -5.818000000
H     0.997000000     0.515000000    -4.895000000
O    -1.390000000     6.650000000    -3.008000000
H    -1.461000000     7.307000000    -3.701000000
H    -0.461000000     6.649000000    -2.774000000
O    -2.463000000     2.372000000    -4.848000000
H    -2.438000000     1.793000000    -5.610000000
H    -2.133000000     3.209000000    -5.173000000
O     0.583000000     3.433000000     2.942000000
H     0.813000000     2.505000000     2.920000000
H    -0.349000000     3.455000000     2.727000000
O     0.210000000     0.913000000    -3.408000000
H    -0.300000000     1.589000000    -3.855000000
H    -0.058000000     0.976000000    -2.492000000
O     0.235000000    -2.671000000     4.782000000
H    -0.527000000    -2.714000000     5.359000000
H     0.049000000    -1.941000000     4.192000000
O     1.526000000    -1.903000000    -3.118000000
H     1.321000000    -1.005000000    -2.857000000
H     0.679000000    -2.283000000    -3.353000000
O     0.120000000    -5.713000000    -2.992000000
H     0.099000000    -5.203000000    -2.182000000
H    -0.801000000    -5.821000000    -3.231000000
O     6.046000000    -0.028000000     2.293000000
H     5.988000000     0.592000000     3.020000000
H     6.042000000     0.521000000     1.509000000
O     2.802000000    -3.900000000    -1.500000000
H     2.508000000    -3.123000000    -1.975000000
H     3.155000000    -3.558000000    -0.678000000
O     3.101000000     4.699000000     3.120000000
H     3.651000000     4.798000000     2.343000000
H     2.260000000     4.393000000     2.780000000
O     2.003000000    -6.571000000     4.496000000
H     1.343000000    -6.238000000     3.888000000
H     2.283000000    -5.801000000     4.991000000
O     4.342000000     5.342000000     0.885000000
H     3.690000000     5.966000000     0.565000000
H     4.710000000     4.952000000     0.092000000
O     2.465000000    -3.825000000     5.457000000
H     2.452000000    -3.699000000     6.406000000
H     1.663000000    -3.404000000     5.149000000
O    -4.599000000    -4.267000000    -0.545000000
H    -4.657000000    -3.725000000     0.242000000
H    -3.659000000    -4.381000000    -0.689000000
O     0.348000000    -4.844000000     3.090000000
H     0.105000000    -4.527000000     2.220000000
H     0.122000000    -4.124000000     3.679000000
O    -3.166000000    -7.463000000    -0.765000000
H    -2.677000000    -6.976000000    -0.101000000
H    -3.913000000    -7.828000000    -0.291000000
