144
-2813.18908
O    -0.754000000     3.932000000     0.607000000
H    -1.475000000     3.311000000     0.509000000
H    -0.363000000     3.713000000     1.453000000
O    -5.094000000     0.713000000     2.329000000
H    -5.611000000     1.389000000     1.889000000
H    -5.000000000     1.031000000     3.227000000
O    -5.793000000    -1.550000000     1.024000000
H    -6.481000000    -1.363000000     0.385000000
H    -5.971000000    -0.952000000     1.750000000
O     1.619000000     0.821000000    -5.249000000
H     1.319000000    -0.078000000    -5.109000000
H     0.912000000     1.235000000    -5.744000000
O     1.448000000    -4.174000000    -3.173000000
H     0.548000000    -4.111000000    -3.492000000
H     1.797000000    -3.287000000    -3.267000000
O    -1.799000000     2.731000000    -2.211000000
H    -1.477000000     2.289000000    -1.425000000
H    -2.751000000     2.722000000    -2.117000000
O     0.588000000     3.737000000    -3.006000000
H     0.725000000     4.218000000    -2.191000000
H    -0.288000000     3.359000000    -2.917000000
O     2.186000000     2.062000000     7.600000000
H     1.829000000     2.937000000     7.747000000
H     2.896000000     2.195000000     6.973000000
O     1.128000000    -1.933000000    -5.018000000
H     1.181000000    -2.474000000    -5.806000000
H     0.203000000    -1.959000000    -4.773000000
O    -4.634000000     2.952000000    -1.403000000
H    -4.273000000     3.558000000    -0.757000000
H    -4.946000000     3.515000000    -2.112000000
O     2.761000000     0.179000000     4.004000000
H     3.464000000     0.430000000     4.603000000
H     2.518000000     0.995000000     3.565000000
O    -2.080000000    -0.688000000     4.925000000
H    -2.093000000    -1.011000000     4.024000000
H    -2.993000000    -0.736000000     5.210000000
O     0.207000000     4.433000000    -5.750000000
H    -0.726000000     4.631000000    -5.827000000
H     0.355000000     4.339000000    -4.809000000
O     4.605000000     1.190000000     5.942000000
H     4.968000000     0.474000000     6.463000000
H     5.367000000     1.703000000     5.674000000
O     4.785000000    -0.872000000    -1.718000000
H     5.167000000    -0.594000000    -2.550000000
H     5.347000000    -1.589000000    -1.424000000
O     2.691000000    -2.384000000    -0.763000000
H     2.528000000    -1.825000000    -0.004000000
H     3.256000000    -1.859000000    -1.330000000
O     5.006000000     4.875000000     2.943000000
H     5.793000000     5.379000000     2.734000000
H     4.729000000     5.207000000     3.797000000
O    -4.013000000     1.537000000    -4.507000000
H    -4.855000000     1.943000000    -4.711000000
H    -3.397000000     2.269000000    -4.472000000
O    -5.323000000     0.344000000    -1.548000000
H    -5.125000000     1.271000000    -1.414000000
H    -4.481000000    -0.098000000    -1.438000000
O     0.276000000     4.336000000     3.484000000
H     0.780000000     5.149000000     3.522000000
H     0.912000000     3.673000000     3.213000000
O     6.703000000     2.601000000     4.929000000
H     6.277000000     2.442000000     4.087000000
H     7.074000000     3.480000000     4.848000000
O     1.693000000    -3.207000000     2.575000000
H     2.309000000    -2.536000000     2.280000000
H     1.442000000    -3.670000000     1.776000000
O    -0.484000000    -1.458000000     6.702000000
H    -1.051000000    -1.228000000     5.966000000
H     0.389000000    -1.535000000     6.316000000
O    -0.982000000     6.266000000    -1.510000000
H    -1.451000000     5.437000000    -1.416000000
H    -0.074000000     6.053000000    -1.293000000
O     3.490000000     4.782000000     0.735000000
H     3.990000000     4.983000000     1.526000000
H     3.466000000     3.826000000     0.704000000
O     3.249000000     2.843000000    -3.486000000
H     3.038000000     1.916000000    -3.599000000
H     2.462000000     3.222000000    -3.095000000
O    -0.513000000     1.463000000     7.036000000
H     0.416000000     1.472000000     7.265000000
H    -0.734000000     0.534000000     6.966000000
O     5.334000000     2.293000000     2.581000000
H     4.621000000     2.084000000     1.979000000
H     5.275000000     3.241000000     2.703000000
O     3.696000000    -0.842000000     1.798000000
H     3.978000000     0.044000000     1.573000000
H     3.328000000    -0.761000000     2.678000000
O    -0.871000000    -4.681000000    -4.414000000
H    -1.295000000    -5.235000000    -5.069000000
H    -1.594000000    -4.248000000    -3.961000000
O    -1.831000000    -4.625000000     1.365000000
H    -2.418000000    -3.959000000     1.723000000
H    -2.245000000    -4.893000000     0.545000000
O    -6.192000000    -4.265000000     1.279000000
H    -5.847000000    -3.422000000     0.981000000
H    -5.683000000    -4.915000000     0.795000000
O    -3.448000000    -2.233000000     2.122000000
H    -3.853000000    -2.418000000     2.969000000
H    -4.184000000    -2.180000000     1.512000000
O    -6.619000000    -2.040000000    -3.070000000
H    -6.003000000    -1.687000000    -2.427000000
H    -7.103000000    -1.275000000    -3.381000000
O    -3.548000000    -1.197000000    -4.351000000
H    -4.312000000    -1.236000000    -4.927000000
H    -3.319000000    -0.268000000    -4.321000000
O    -1.411000000     3.531000000     5.536000000
H    -1.031000000     2.858000000     6.101000000
H    -0.820000000     3.575000000     4.784000000
O    -2.344000000     1.607000000     0.910000000
H    -3.189000000     1.345000000     1.274000000
H    -1.820000000     0.805000000     0.919000000
O    -5.626000000    -6.045000000    -0.922000000
H    -5.782000000    -6.988000000    -0.970000000
H    -4.673000000    -5.958000000    -0.954000000
O     1.260000000     5.116000000    -0.722000000
H     2.071000000     5.060000000    -0.218000000
H     0.575000000     4.868000000    -0.101000000
O     1.601000000    -2.143000000     5.239000000
H     1.353000000    -2.553000000     4.411000000
H     2.193000000    -1.435000000     4.988000000
O     0.674000000    -4.281000000     0.176000000
H     0.705000000    -3.736000000    -0.611000000
H    -0.245000000    -4.263000000     0.443000000
O    -3.542000000    -3.830000000    -3.539000000
H    -3.588000000    -2.908000000    -3.790000000
H    -4.338000000    -4.218000000    -3.902000000
O    -1.719000000    -1.022000000    -6.551000000
H    -2.442000000    -1.167000000    -5.941000000
H    -1.904000000    -1.609000000    -7.284000000
O    -2.833000000    -5.611000000    -1.257000000
H    -3.049000000    -4.937000000    -1.902000000
H    -2.559000000    -6.364000000    -1.779000000
O    -0.801000000    -6.428000000     3.048000000
H    -1.013000000    -5.928000000     2.260000000
H    -0.074000000    -5.950000000     3.447000000
O     7.364000000     3.966000000     0.199000000
H     6.738000000     4.689000000     0.175000000
H     6.878000000     3.218000000    -0.149000000
O     1.223000000    -5.440000000     4.145000000
H     1.811000000    -5.829000000     4.792000000
H     1.733000000    -4.731000000     3.753000000
O     5.307000000     1.797000000    -0.709000000
H     5.099000000     0.908000000    -0.994000000
H     4.560000000     2.057000000    -0.169000000
