144
-2835.00803
O    -2.385000000     3.475000000    -5.165000000
H    -2.900000000     3.537000000    -5.970000000
H    -2.091000000     2.564000000    -5.139000000
O     2.396000000     3.398000000     3.248000000
H     2.035000000     3.171000000     2.392000000
H     2.149000000     2.668000000     3.815000000
O    -3.640000000     4.582000000    -2.632000000
H    -3.089000000     3.813000000    -2.490000000
H    -3.632000000     5.041000000    -1.792000000
O    -1.803000000    -2.552000000     0.201000000
H    -1.081000000    -2.995000000     0.648000000
H    -1.376000000    -1.896000000    -0.351000000
O    -3.703000000    -1.736000000     2.119000000
H    -3.109000000    -2.131000000     1.480000000
H    -4.457000000    -1.453000000     1.602000000
O     2.861000000     0.161000000    -4.568000000
H     2.867000000    -0.767000000    -4.334000000
H     3.404000000     0.213000000    -5.355000000
O    -1.779000000    -1.491000000    -5.685000000
H    -2.113000000    -2.378000000    -5.820000000
H    -2.441000000    -1.066000000    -5.139000000
O     3.800000000     4.281000000     1.283000000
H     3.919000000     4.001000000     2.190000000
H     3.141000000     3.682000000     0.932000000
O    -2.318000000     2.030000000     4.160000000
H    -2.353000000     2.452000000     5.018000000
H    -1.662000000     2.529000000     3.674000000
O     0.285000000     6.191000000    -0.574000000
H     1.196000000     6.328000000    -0.315000000
H     0.338000000     5.635000000    -1.351000000
O    -6.537000000     2.761000000    -0.929000000
H    -6.379000000     2.265000000    -0.126000000
H    -6.097000000     3.599000000    -0.784000000
O    -6.016000000     3.625000000    -3.530000000
H    -5.949000000     2.907000000    -2.900000000
H    -5.267000000     4.187000000    -3.332000000
O     5.000000000    -5.827000000     3.276000000
H     4.629000000    -5.976000000     2.406000000
H     5.099000000    -4.876000000     3.334000000
O    -0.026000000     0.897000000    -5.091000000
H     0.883000000     0.604000000    -5.032000000
H    -0.524000000     0.098000000    -5.265000000
O    -0.361000000     3.664000000     3.349000000
H    -0.283000000     4.385000000     2.724000000
H     0.543000000     3.448000000     3.579000000
O    -5.374000000     2.345000000     1.566000000
H    -5.146000000     1.638000000     0.963000000
H    -4.533000000     2.727000000     1.816000000
O    -2.474000000     6.179000000    -0.474000000
H    -1.529000000     6.268000000    -0.600000000
H    -2.705000000     6.892000000     0.121000000
O     4.055000000    -3.309000000    -1.655000000
H     3.488000000    -3.252000000    -0.886000000
H     4.880000000    -3.659000000    -1.319000000
O    -3.483000000    -4.478000000    -0.908000000
H    -3.149000000    -3.685000000    -0.489000000
H    -4.346000000    -4.611000000    -0.516000000
O    -0.264000000    -4.014000000     2.389000000
H    -1.005000000    -3.615000000     2.844000000
H     0.438000000    -4.027000000     3.039000000
O     5.559000000     0.031000000     1.753000000
H     4.728000000    -0.440000000     1.817000000
H     5.955000000    -0.062000000     2.619000000
O     2.203000000    -4.681000000    -3.874000000
H     2.686000000    -4.118000000    -3.268000000
H     1.443000000    -4.159000000    -4.132000000
O     1.635000000     1.449000000     5.176000000
H     0.900000000     1.185000000     5.729000000
H     2.144000000     0.647000000     5.056000000
O     0.160000000    -1.460000000     6.158000000
H     0.084000000    -0.725000000     6.766000000
H    -0.688000000    -1.494000000     5.716000000
O     3.306000000    -5.188000000     1.107000000
H     2.963000000    -4.315000000     0.917000000
H     2.528000000    -5.740000000     1.184000000
O     5.691000000    -5.329000000    -0.318000000
H     4.885000000    -5.358000000     0.197000000
H     5.791000000    -6.218000000    -0.658000000
O     2.180000000     2.980000000    -4.117000000
H     2.889000000     3.173000000    -3.505000000
H     2.402000000     2.121000000    -4.478000000
O     0.434000000     3.863000000    -2.018000000
H     0.108000000     4.486000000    -2.667000000
H     0.948000000     3.235000000    -2.525000000
O     2.317000000    -3.690000000     3.701000000
H     3.206000000    -3.556000000     3.372000000
H     2.413000000    -3.699000000     4.654000000
O    -5.896000000    -0.264000000     0.101000000
H    -6.839000000    -0.199000000     0.250000000
H    -5.809000000    -0.905000000    -0.605000000
O     0.738000000    -6.017000000     0.985000000
H     0.489000000    -5.596000000     0.162000000
H     0.342000000    -5.469000000     1.663000000
O     4.622000000     0.166000000    -0.943000000
H     5.073000000     0.502000000    -0.168000000
H     4.144000000    -0.602000000    -0.628000000
O    -3.094000000     4.361000000     1.690000000
H    -3.330000000     4.688000000     0.821000000
H    -2.151000000     4.513000000     1.754000000
O     5.064000000    -2.919000000     2.582000000
H     4.351000000    -2.563000000     2.052000000
H     5.452000000    -2.153000000     3.007000000
O     3.458000000    -0.552000000     4.511000000
H     3.462000000    -0.810000000     3.589000000
H     3.183000000    -1.340000000     4.980000000
O    -0.514000000     5.997000000     1.960000000
H    -0.300000000     6.154000000     1.040000000
H     0.112000000     6.532000000     2.447000000
O    -2.324000000    -0.828000000     4.608000000
H    -2.411000000     0.124000000     4.572000000
H    -2.650000000    -1.131000000     3.760000000
O     6.486000000    -2.051000000    -0.092000000
H     6.681000000    -1.171000000     0.231000000
H     5.727000000    -2.331000000     0.420000000
O    -6.503000000     0.542000000     3.686000000
H    -5.876000000     0.879000000     3.046000000
H    -7.352000000     0.859000000     3.379000000
O     0.069000000    -4.712000000    -1.335000000
H    -0.057000000    -4.187000000    -2.126000000
H     0.405000000    -5.549000000    -1.654000000
O     6.646000000    -0.734000000     4.264000000
H     7.601000000    -0.753000000     4.328000000
H     6.344000000    -1.115000000     5.088000000
O    -2.749000000     5.567000000     4.231000000
H    -3.602000000     5.912000000     3.970000000
H    -2.629000000     4.789000000     3.686000000
O    -0.886000000     5.574000000    -3.547000000
H    -1.555000000     4.971000000    -3.870000000
H    -1.273000000     6.442000000    -3.656000000
O    -0.462000000    -3.295000000    -3.875000000
H    -1.202000000    -3.894000000    -3.775000000
H    -0.766000000    -2.644000000    -4.509000000
O     1.794000000     2.717000000     0.551000000
H     1.215000000     2.937000000    -0.179000000
H     1.766000000     1.761000000     0.599000000
O     7.883000000    -3.978000000     1.836000000
H     6.959000000    -3.953000000     2.086000000
H     7.882000000    -4.343000000     0.951000000
O    -4.064000000    -0.597000000    -4.042000000
H    -4.317000000    -1.019000000    -3.221000000
H    -4.875000000    -0.552000000    -4.548000000
O     4.350000000    -2.477000000    -4.419000000
H     4.441000000    -3.022000000    -3.638000000
H     4.702000000    -1.626000000    -4.159000000
