144
-2788.58305
O    -3.695000000     3.975000000    -3.413000000
H    -2.868000000     3.620000000    -3.739000000
H    -4.368000000     3.501000000    -3.903000000
O     0.951000000    -4.724000000    -3.521000000
H     0.967000000    -3.784000000    -3.704000000
H     0.082000000    -4.880000000    -3.151000000
O    -5.005000000     1.698000000    -4.628000000
H    -5.688000000     1.174000000    -4.211000000
H    -4.201000000     1.196000000    -4.493000000
O     5.424000000    -5.233000000     1.150000000
H     4.921000000    -4.699000000     1.765000000
H     6.217000000    -4.723000000     0.984000000
O    -2.251000000    -5.938000000     2.042000000
H    -1.503000000    -5.599000000     2.534000000
H    -3.017000000    -5.613000000     2.516000000
O    -0.690000000     0.957000000    -3.578000000
H    -0.377000000     1.648000000    -4.161000000
H     0.020000000     0.837000000    -2.947000000
O     5.923000000    -2.819000000     3.125000000
H     5.653000000    -2.105000000     2.548000000
H     5.103000000    -3.237000000     3.389000000
O     5.130000000     2.933000000     2.269000000
H     4.249000000     2.697000000     2.560000000
H     5.162000000     2.654000000     1.354000000
O    -4.761000000     2.181000000     0.979000000
H    -4.184000000     1.497000000     1.320000000
H    -5.082000000     1.831000000     0.148000000
O    -4.452000000    -1.003000000     0.873000000
H    -5.393000000    -0.919000000     0.717000000
H    -4.095000000    -1.297000000     0.034000000
O    -1.076000000     0.337000000     3.161000000
H    -2.028000000     0.366000000     3.251000000
H    -0.928000000     0.164000000     2.231000000
O     5.160000000     2.332000000    -0.663000000
H     5.135000000     3.287000000    -0.728000000
H     4.953000000     2.027000000    -1.546000000
O     1.474000000    -6.429000000     0.643000000
H     1.837000000    -6.341000000    -0.239000000
H     1.126000000    -5.561000000     0.846000000
O     0.170000000     4.889000000    -2.326000000
H     0.383000000     5.685000000    -2.812000000
H     0.788000000     4.236000000    -2.652000000
O     5.192000000    -2.641000000    -0.986000000
H     5.813000000    -2.927000000    -0.316000000
H     4.355000000    -3.015000000    -0.712000000
O    -0.245000000    -4.403000000     3.148000000
H     0.064000000    -4.063000000     2.309000000
H     0.299000000    -3.962000000     3.801000000
O    -1.733000000    -4.467000000    -0.286000000
H    -0.813000000    -4.430000000    -0.026000000
H    -2.161000000    -4.959000000     0.414000000
O    -0.323000000     3.151000000     3.234000000
H     0.502000000     3.314000000     2.778000000
H    -0.536000000     2.241000000     3.026000000
O     5.075000000     1.989000000    -3.512000000
H     5.856000000     2.442000000    -3.194000000
H     4.681000000     2.599000000    -4.136000000
O     3.657000000     0.319000000    -5.131000000
H     4.253000000     0.784000000    -4.543000000
H     3.838000000    -0.607000000    -4.972000000
O    -3.376000000    -2.336000000    -1.427000000
H    -4.163000000    -2.735000000    -1.057000000
H    -2.652000000    -2.799000000    -1.006000000
O    -5.246000000     4.664000000     1.959000000
H    -4.408000000     5.044000000     2.221000000
H    -5.009000000     3.923000000     1.401000000
O     4.981000000    -0.764000000     1.629000000
H     4.508000000    -1.418000000     1.114000000
H     4.303000000    -0.158000000     1.928000000
O     2.759000000     0.727000000     2.361000000
H     2.234000000     1.518000000     2.483000000
H     2.364000000     0.084000000     2.950000000
O     0.775000000    -8.984000000     1.024000000
H     0.185000000    -8.995000000     1.778000000
H     1.156000000    -8.106000000     1.031000000
O     1.807000000     3.233000000     1.572000000
H     1.586000000     4.066000000     1.156000000
H     2.081000000     2.669000000     0.849000000
O    -3.799000000     4.633000000    -0.775000000
H    -3.836000000     3.791000000    -0.320000000
H    -3.804000000     4.404000000    -1.704000000
O     3.428000000    -4.020000000     2.583000000
H     2.960000000    -3.682000000     1.820000000
H     2.999000000    -3.604000000     3.331000000
O    -3.144000000    -0.103000000    -3.211000000
H    -3.305000000    -0.607000000    -2.414000000
H    -2.253000000     0.232000000    -3.107000000
O    -2.159000000    -3.692000000     5.433000000
H    -1.600000000    -2.918000000     5.496000000
H    -1.913000000    -4.098000000     4.602000000
O     5.364000000    -3.667000000    -4.432000000
H     4.996000000    -3.510000000    -3.562000000
H     6.311000000    -3.615000000    -4.305000000
O    -5.234000000    -2.898000000     3.029000000
H    -4.896000000    -2.392000000     2.290000000
H    -6.185000000    -2.854000000     2.934000000
O     3.409000000    -7.386000000     2.414000000
H     4.272000000    -7.274000000     2.015000000
H     2.812000000    -6.922000000     1.826000000
O     2.917000000    -5.234000000    -1.273000000
H     2.756000000    -4.578000000    -0.595000000
H     2.383000000    -4.949000000    -2.014000000
O    -0.586000000    -1.465000000     5.206000000
H    -0.810000000    -0.954000000     4.428000000
H    -0.477000000    -0.812000000     5.898000000
O    -5.323000000    -3.766000000    -0.320000000
H    -5.446000000    -4.106000000    -1.206000000
H    -6.194000000    -3.807000000     0.075000000
O     0.569000000    -2.058000000    -4.231000000
H    -0.380000000    -2.092000000    -4.353000000
H     0.738000000    -1.172000000    -3.911000000
O    -3.826000000     0.217000000     3.483000000
H    -4.041000000    -0.276000000     2.692000000
H    -3.949000000    -0.410000000     4.197000000
O    -1.925000000    -5.431000000    -3.035000000
H    -2.711000000    -5.197000000    -3.528000000
H    -2.040000000    -5.006000000    -2.184000000
O    -3.048000000     6.182000000     2.928000000
H    -2.234000000     6.187000000     3.431000000
H    -3.334000000     7.096000000     2.927000000
O     5.554000000    -6.257000000    -2.034000000
H     5.954000000    -7.041000000    -1.657000000
H     5.010000000    -5.903000000    -1.331000000
O     2.494000000     3.153000000    -2.857000000
H     3.091000000     3.583000000    -2.245000000
H     3.059000000     2.591000000    -3.387000000
O    -1.243000000     5.647000000    -0.293000000
H    -2.156000000     5.431000000    -0.480000000
H    -0.747000000     5.216000000    -0.989000000
O     3.781000000     4.833000000    -1.016000000
H     4.604000000     5.319000000    -1.065000000
H     3.138000000     5.479000000    -0.726000000
O     2.420000000    -0.983000000     4.254000000
H     2.121000000    -1.866000000     4.473000000
H     2.136000000    -0.444000000     4.993000000
O    -6.301000000     1.891000000    -1.312000000
H    -6.716000000     2.753000000    -1.282000000
H    -6.888000000     1.360000000    -1.850000000
O    -2.473000000     3.472000000     4.925000000
H    -2.238000000     4.330000000     5.279000000
H    -1.857000000     3.332000000     4.206000000
O     1.136000000     5.883000000     1.099000000
H     0.438000000     5.684000000     0.476000000
H     1.756000000     6.417000000     0.603000000
