144
-2831.67236
O    -4.310000000    -2.732000000    -0.211000000
H    -3.457000000    -3.035000000     0.100000000
H    -4.610000000    -2.123000000     0.463000000
O     2.634000000     4.719000000    -2.309000000
H     2.852000000     3.820000000    -2.065000000
H     3.018000000     4.832000000    -3.178000000
O     3.953000000     6.364000000    -0.900000000
H     3.322000000     5.990000000    -1.514000000
H     3.671000000     7.272000000    -0.790000000
O    -0.953000000     5.784000000    -0.521000000
H    -1.711000000     5.904000000     0.052000000
H    -1.326000000     5.718000000    -1.400000000
O     3.531000000     4.419000000     0.817000000
H     3.750000000     5.134000000     0.219000000
H     2.601000000     4.541000000     1.006000000
O     1.726000000    -2.352000000     3.411000000
H     0.865000000    -2.417000000     2.998000000
H     1.891000000    -3.228000000     3.760000000
O     0.080000000     5.324000000    -6.212000000
H     0.385000000     4.436000000    -6.031000000
H     0.262000000     5.809000000    -5.407000000
O    -1.789000000     3.721000000     2.474000000
H    -0.896000000     4.024000000     2.315000000
H    -1.776000000     3.398000000     3.375000000
O    -0.740000000    -5.110000000     3.968000000
H    -0.793000000    -5.979000000     3.571000000
H    -0.633000000    -4.514000000     3.226000000
O    -3.977000000    -4.926000000     1.926000000
H    -4.108000000    -5.860000000     2.090000000
H    -3.175000000    -4.885000000     1.405000000
O    -5.612000000    -0.705000000     1.364000000
H    -5.138000000    -0.494000000     2.168000000
H    -5.638000000     0.119000000     0.878000000
O    -2.172000000     3.519000000    -6.399000000
H    -1.421000000     4.102000000    -6.292000000
H    -2.351000000     3.194000000    -5.517000000
O    -1.740000000    -6.677000000    -1.485000000
H    -1.810000000    -7.530000000    -1.057000000
H    -1.624000000    -6.056000000    -0.765000000
O    -0.821000000    -5.633000000     0.957000000
H    -1.203000000    -4.772000000     0.785000000
H     0.120000000    -5.505000000     0.840000000
O    -3.989000000     1.928000000    -1.180000000
H    -3.535000000     2.056000000    -0.346000000
H    -3.996000000     0.979000000    -1.305000000
O    -0.834000000    -8.195000000     2.150000000
H    -1.345000000    -7.504000000     1.728000000
H    -0.088000000    -8.331000000     1.567000000
O    -1.983000000     5.170000000    -3.190000000
H    -1.951000000     4.293000000    -3.572000000
H    -2.711000000     5.600000000    -3.638000000
O     0.743000000     4.669000000     1.445000000
H     0.530000000     5.558000000     1.728000000
H     0.454000000     4.632000000     0.533000000
O     6.104000000     2.318000000    -2.267000000
H     5.855000000     2.423000000    -1.349000000
H     6.381000000     1.405000000    -2.338000000
O     5.401000000     2.129000000     0.563000000
H     5.942000000     2.197000000     1.349000000
H     4.875000000     2.930000000     0.565000000
O     2.996000000    -4.953000000     3.952000000
H     2.242000000    -5.440000000     4.284000000
H     3.249000000    -5.416000000     3.154000000
O     3.108000000     1.733000000    -4.951000000
H     3.131000000     0.781000000    -4.852000000
H     3.677000000     2.060000000    -4.254000000
O     2.595000000    -1.169000000    -4.420000000
H     2.254000000    -1.218000000    -3.526000000
H     1.870000000    -1.470000000    -4.968000000
O    -2.265000000     1.587000000     0.846000000
H    -2.118000000     2.377000000     1.365000000
H    -1.435000000     1.112000000     0.891000000
O    -4.239000000     0.105000000     3.791000000
H    -4.385000000    -0.751000000     4.194000000
H    -3.290000000     0.222000000     3.815000000
O    -4.740000000     1.156000000    -4.855000000
H    -5.264000000     0.408000000    -4.567000000
H    -4.049000000     0.771000000    -5.393000000
O    -6.538000000    -5.003000000    -0.050000000
H    -6.061000000    -5.512000000    -0.705000000
H    -5.856000000    -4.639000000     0.515000000
O    -4.031000000    -0.514000000    -1.772000000
H    -4.366000000    -0.950000000    -2.555000000
H    -4.318000000    -1.070000000    -1.047000000
O     3.171000000    -0.427000000     4.551000000
H     3.953000000    -0.461000000     4.000000000
H     2.582000000    -1.080000000     4.172000000
O     4.048000000    -0.332000000    -0.372000000
H     4.214000000     0.496000000     0.078000000
H     4.749000000    -0.397000000    -1.021000000
O    -1.051000000     2.927000000     4.909000000
H    -1.754000000     2.572000000     5.452000000
H    -0.246000000     2.642000000     5.341000000
O    -1.185000000    -3.058000000    -4.678000000
H    -0.918000000    -2.153000000    -4.513000000
H    -1.970000000    -3.177000000    -4.144000000
O    -2.735000000    -0.122000000    -6.171000000
H    -1.811000000    -0.043000000    -5.933000000
H    -2.733000000    -0.159000000    -7.127000000
O    -2.589000000     2.349000000    -3.861000000
H    -2.093000000     1.808000000    -3.246000000
H    -3.313000000     1.790000000    -4.142000000
O     3.577000000     2.581000000     5.680000000
H     4.094000000     1.779000000     5.614000000
H     3.886000000     3.126000000     4.957000000
O     1.140000000     2.958000000    -6.098000000
H     1.209000000     2.627000000    -6.994000000
H     1.895000000     2.583000000    -5.645000000
O     0.836000000     5.960000000    -3.655000000
H     1.400000000     5.339000000    -3.193000000
H     0.086000000     6.081000000    -3.073000000
O     2.228000000    -1.992000000    -1.711000000
H     2.949000000    -1.489000000    -1.332000000
H     1.464000000    -1.744000000    -1.190000000
O    -3.593000000    -2.924000000    -3.110000000
H    -4.363000000    -2.526000000    -3.515000000
H    -3.861000000    -3.101000000    -2.208000000
O     3.901000000    -2.086000000     1.740000000
H     3.533000000    -1.414000000     1.166000000
H     3.167000000    -2.359000000     2.290000000
O    -0.121000000    -0.237000000    -5.427000000
H     0.550000000     0.424000000    -5.599000000
H     0.162000000    -1.001000000    -5.930000000
O     1.719000000    -5.449000000    -0.557000000
H     1.485000000    -6.272000000    -0.986000000
H     1.746000000    -4.808000000    -1.267000000
O     1.219000000     1.332000000     5.607000000
H     1.758000000     2.056000000     5.925000000
H     1.848000000     0.693000000     5.272000000
O    -1.415000000    -3.616000000     6.060000000
H    -1.236000000    -4.281000000     5.395000000
H    -1.307000000    -2.783000000     5.602000000
O     3.903000000     4.320000000     3.736000000
H     3.580000000     4.928000000     4.400000000
H     3.404000000     4.539000000     2.948000000
O     4.926000000     3.832000000    -4.221000000
H     5.661000000     4.387000000    -4.480000000
H     5.280000000     3.272000000    -3.530000000
O    -3.581000000    -2.588000000     3.902000000
H    -3.810000000    -3.422000000     3.493000000
H    -2.646000000    -2.483000000     3.728000000
O    -1.283000000    -1.161000000     4.471000000
H    -0.930000000    -1.762000000     3.815000000
H    -0.951000000    -0.302000000     4.212000000
