144
-2770.16247
O     1.699000000     4.239000000    -4.751000000
H     1.927000000     3.374000000    -5.092000000
H     1.694000000     4.128000000    -3.800000000
O     2.541000000    -4.089000000     5.330000000
H     1.790000000    -3.555000000     5.590000000
H     2.413000000    -4.920000000     5.788000000
O    -1.372000000    -2.860000000    -1.631000000
H    -1.922000000    -3.565000000    -1.291000000
H    -0.771000000    -2.658000000    -0.914000000
O     3.013000000    -0.043000000     3.116000000
H     2.906000000    -0.889000000     2.679000000
H     2.989000000    -0.251000000     4.050000000
O    -1.996000000     4.254000000     2.502000000
H    -2.615000000     4.553000000     3.167000000
H    -1.486000000     3.572000000     2.939000000
O    -2.613000000    -2.822000000     2.932000000
H    -2.122000000    -3.556000000     3.301000000
H    -3.333000000    -2.682000000     3.546000000
O     2.745000000     1.662000000    -4.436000000
H     1.920000000     1.220000000    -4.637000000
H     2.990000000     1.330000000    -3.572000000
O     6.379000000    -6.182000000    -0.905000000
H     5.759000000    -5.688000000    -0.367000000
H     7.219000000    -5.745000000    -0.763000000
O    -5.690000000     2.965000000     0.089000000
H    -6.112000000     2.120000000    -0.066000000
H    -6.302000000     3.608000000    -0.269000000
O     5.399000000     1.219000000     2.032000000
H     4.551000000     0.927000000     2.366000000
H     5.714000000     0.486000000     1.503000000
O     4.580000000     0.157000000    -5.841000000
H     3.863000000     0.691000000    -5.500000000
H     5.301000000     0.305000000    -5.228000000
O    -4.924000000     3.883000000     2.902000000
H    -5.288000000     3.119000000     3.350000000
H    -4.432000000     3.518000000     2.167000000
O    -3.153000000     0.839000000     4.044000000
H    -3.722000000     0.908000000     4.811000000
H    -3.754000000     0.839000000     3.299000000
O     3.416000000    -7.048000000     1.387000000
H     2.622000000    -7.548000000     1.199000000
H     3.140000000    -6.395000000     2.031000000
O    -4.088000000     5.160000000    -1.098000000
H    -4.957000000     4.891000000    -0.803000000
H    -3.596000000     4.342000000    -1.175000000
O    -0.051000000    -3.175000000     5.828000000
H    -0.881000000    -2.718000000     5.962000000
H    -0.214000000    -3.752000000     5.081000000
O    -0.363000000    -4.849000000     3.554000000
H     0.156000000    -4.312000000     2.955000000
H    -0.503000000    -5.669000000     3.081000000
O    -1.144000000    -7.067000000     2.200000000
H    -1.110000000    -8.014000000     2.063000000
H    -2.079000000    -6.866000000     2.249000000
O     1.419000000     2.278000000     1.907000000
H     0.832000000     1.603000000     1.566000000
H     1.993000000     1.811000000     2.515000000
O     4.411000000    -1.432000000    -1.084000000
H     4.451000000    -2.122000000    -1.747000000
H     3.901000000    -1.815000000    -0.370000000
O     0.978000000    -0.228000000    -5.305000000
H     0.596000000    -0.721000000    -4.578000000
H     1.033000000    -0.861000000    -6.021000000
O     0.704000000     4.874000000     3.427000000
H     0.510000000     3.944000000     3.315000000
H    -0.104000000     5.246000000     3.781000000
O    -4.725000000    -2.001000000    -1.567000000
H    -4.906000000    -2.840000000    -1.143000000
H    -4.330000000    -1.466000000    -0.880000000
O     4.884000000    -3.314000000    -2.885000000
H     4.595000000    -3.310000000    -3.798000000
H     5.822000000    -3.128000000    -2.930000000
O     3.030000000    -4.889000000     2.833000000
H     2.519000000    -4.227000000     2.367000000
H     3.073000000    -4.569000000     3.734000000
O    -1.269000000    -6.442000000     5.623000000
H    -0.883000000    -5.907000000     4.929000000
H    -2.030000000    -6.853000000     5.212000000
O    -0.949000000     2.203000000     3.757000000
H    -1.742000000     1.674000000     3.669000000
H    -0.329000000     1.631000000     4.210000000
O     4.484000000    -4.726000000     0.441000000
H     4.200000000    -5.522000000     0.891000000
H     3.797000000    -4.087000000     0.630000000
O    -0.769000000    -1.288000000    -3.670000000
H    -1.415000000    -0.589000000    -3.566000000
H    -0.925000000    -1.871000000    -2.927000000
O    -5.668000000     1.372000000    -3.236000000
H    -5.211000000     1.954000000    -3.844000000
H    -6.550000000     1.740000000    -3.170000000
O     1.127000000     4.364000000     0.229000000
H     1.351000000     3.650000000     0.827000000
H     0.313000000     4.724000000     0.580000000
O     0.738000000    -4.676000000    -0.550000000
H     0.015000000    -5.154000000    -0.143000000
H     1.049000000    -4.083000000     0.134000000
O    -5.420000000     0.760000000     2.551000000
H    -6.026000000     0.907000000     1.825000000
H    -5.904000000     1.041000000     3.328000000
O    -2.988000000    -1.712000000     0.586000000
H    -3.042000000    -2.146000000     1.438000000
H    -2.097000000    -1.364000000     0.550000000
O    -2.275000000    -1.608000000     5.708000000
H    -3.077000000    -1.983000000     5.344000000
H    -2.133000000    -0.808000000     5.202000000
O     5.190000000    -1.844000000     2.621000000
H     4.445000000    -2.079000000     2.067000000
H     5.893000000    -1.641000000     2.005000000
O     6.908000000    -4.008000000     1.734000000
H     6.072000000    -4.341000000     1.408000000
H     6.679000000    -3.207000000     2.206000000
O    -5.528000000    -2.057000000     2.077000000
H    -5.552000000    -1.113000000     2.235000000
H    -4.864000000    -2.170000000     1.398000000
O     2.209000000     3.538000000    -2.173000000
H     2.433000000     2.667000000    -1.848000000
H     1.971000000     4.033000000    -1.388000000
O     0.516000000     0.823000000     5.522000000
H     0.545000000    -0.072000000     5.860000000
H     1.435000000     1.076000000     5.436000000
O     4.272000000     1.055000000    -2.068000000
H     4.351000000     0.159000000    -1.740000000
H     5.055000000     1.499000000    -1.744000000
O     3.066000000     5.781000000     1.534000000
H     2.446000000     5.536000000     0.848000000
H     2.518000000     6.110000000     2.247000000
O    -3.664000000    -0.660000000    -3.697000000
H    -4.249000000     0.086000000    -3.562000000
H    -3.852000000    -1.246000000    -2.963000000
O     2.648000000    -5.165000000    -2.526000000
H     3.191000000    -4.493000000    -2.112000000
H     1.867000000    -5.215000000    -1.974000000
O     6.666000000    -0.866000000     0.673000000
H     7.522000000    -0.598000000     0.338000000
H     6.280000000    -1.375000000    -0.040000000
O     4.652000000    -2.403000000     5.088000000
H     4.785000000    -2.127000000     4.181000000
H     3.847000000    -2.922000000     5.064000000
O    -1.862000000     6.671000000     1.062000000
H    -1.684000000     5.789000000     1.390000000
H    -1.568000000     7.252000000     1.763000000
O    -0.607000000     4.595000000    -6.371000000
H    -1.189000000     3.857000000    -6.189000000
H     0.010000000     4.600000000    -5.639000000
