144
-2818.12852
O    -4.905000000     5.820000000     0.852000000
H    -4.790000000     6.504000000     0.193000000
H    -4.818000000     5.000000000     0.365000000
O    -0.497000000    -0.622000000    -2.966000000
H    -1.126000000    -1.343000000    -2.986000000
H    -0.902000000     0.034000000    -2.398000000
O    -3.967000000    -2.346000000     2.662000000
H    -3.933000000    -2.534000000     1.724000000
H    -3.084000000    -2.048000000     2.879000000
O     1.882000000    -0.583000000    -4.018000000
H     2.229000000    -0.012000000    -3.333000000
H     0.975000000    -0.745000000    -3.758000000
O     1.537000000     3.027000000    -4.151000000
H     2.432000000     3.204000000    -3.863000000
H     1.030000000     3.772000000    -3.827000000
O     7.264000000    -2.401000000    -2.994000000
H     7.984000000    -2.148000000    -3.572000000
H     6.579000000    -1.756000000    -3.169000000
O     6.186000000     1.597000000     0.285000000
H     5.266000000     1.333000000     0.291000000
H     6.487000000     1.437000000     1.180000000
O     3.343000000    -3.369000000     1.847000000
H     3.579000000    -2.816000000     1.103000000
H     3.561000000    -4.257000000     1.564000000
O    -1.132000000     5.451000000     0.835000000
H    -0.658000000     6.258000000     1.039000000
H    -1.047000000     4.917000000     1.625000000
O     5.453000000    -0.493000000    -3.853000000
H     5.066000000     0.114000000    -3.224000000
H     4.947000000    -0.362000000    -4.655000000
O    -0.898000000     0.518000000    -6.082000000
H    -1.827000000     0.736000000    -6.161000000
H    -0.798000000     0.218000000    -5.179000000
O     4.023000000    -2.896000000    -2.309000000
H     4.484000000    -2.303000000    -2.902000000
H     3.847000000    -2.368000000    -1.531000000
O    -5.476000000    -0.099000000    -4.454000000
H    -5.725000000     0.782000000    -4.734000000
H    -5.075000000    -0.491000000    -5.230000000
O    -6.061000000     1.029000000     3.801000000
H    -5.598000000     0.588000000     4.513000000
H    -5.368000000     1.437000000     3.282000000
O    -6.321000000    -3.796000000     3.326000000
H    -5.511000000    -3.346000000     3.085000000
H    -6.372000000    -3.702000000     4.277000000
O     5.150000000    -1.100000000     3.026000000
H     4.602000000    -1.752000000     3.463000000
H     4.529000000    -0.471000000     2.660000000
O     1.298000000    -0.209000000     4.517000000
H     1.464000000     0.039000000     3.608000000
H     1.130000000     0.621000000     4.965000000
O     1.154000000    -3.645000000    -2.676000000
H     0.468000000    -3.017000000    -2.448000000
H     1.966000000    -3.229000000    -2.388000000
O     3.616000000     1.130000000    -2.309000000
H     3.381000000     2.040000000    -2.494000000
H     3.777000000     1.111000000    -1.366000000
O     3.333000000     1.446000000    -5.678000000
H     3.234000000     0.646000000    -6.194000000
H     2.743000000     1.326000000    -4.934000000
O    -1.136000000    -6.119000000     0.314000000
H    -0.950000000    -5.392000000     0.908000000
H    -0.274000000    -6.421000000     0.029000000
O    -2.635000000     4.396000000    -1.076000000
H    -2.733000000     5.207000000    -1.576000000
H    -2.197000000     4.665000000    -0.268000000
O    -6.624000000     3.318000000    -2.336000000
H    -6.360000000     3.414000000    -3.251000000
H    -6.392000000     2.417000000    -2.112000000
O    -6.749000000    -2.414000000    -3.988000000
H    -6.250000000    -2.483000000    -3.175000000
H    -6.605000000    -1.515000000    -4.283000000
O     2.714000000     5.643000000    -0.314000000
H     2.287000000     5.826000000    -1.151000000
H     2.813000000     4.691000000    -0.300000000
O     0.201000000     5.019000000    -2.354000000
H    -0.680000000     4.675000000    -2.207000000
H     0.072000000     5.957000000    -2.492000000
O     5.969000000     3.763000000    -1.277000000
H     6.836000000     4.066000000    -1.546000000
H     6.141000000     3.137000000    -0.574000000
O     6.244000000    -1.970000000     0.026000000
H     6.513000000    -2.014000000     0.944000000
H     5.321000000    -1.718000000     0.059000000
O    -2.705000000    -4.045000000     4.748000000
H    -2.200000000    -3.469000000     4.174000000
H    -3.429000000    -3.500000000     5.058000000
O     8.829000000     0.712000000    -0.231000000
H     7.940000000     1.068000000    -0.231000000
H     8.728000000    -0.182000000     0.095000000
O    -6.299000000    -1.945000000    -1.271000000
H    -5.468000000    -2.240000000    -0.897000000
H    -6.941000000    -2.583000000    -0.960000000
O     6.887000000    -4.442000000    -1.152000000
H     7.102000000    -3.853000000    -1.874000000
H     6.367000000    -3.907000000    -0.552000000
O     2.773000000     1.900000000     2.584000000
H     3.374000000     2.575000000     2.898000000
H     3.224000000     1.505000000     1.838000000
O    -0.695000000    -4.331000000     2.277000000
H    -1.363000000    -4.703000000     2.852000000
H    -0.422000000    -3.526000000     2.716000000
O    -4.253000000     2.725000000     2.616000000
H    -4.728000000     2.633000000     1.790000000
H    -4.408000000     3.632000000     2.882000000
O    -3.648000000    -2.973000000     0.096000000
H    -2.950000000    -2.869000000    -0.551000000
H    -4.009000000    -3.842000000    -0.079000000
O    -2.516000000     0.448000000     3.305000000
H    -1.631000000     0.672000000     3.015000000
H    -3.030000000     1.237000000     3.136000000
O    -2.187000000    -3.042000000    -2.450000000
H    -2.662000000    -2.948000000    -3.276000000
H    -1.986000000    -3.976000000    -2.394000000
O     3.886000000     3.898000000    -2.877000000
H     4.283000000     4.063000000    -3.733000000
H     4.614000000     3.963000000    -2.259000000
O     6.781000000     0.989000000     2.858000000
H     6.683000000     1.545000000     3.630000000
H     6.433000000     0.140000000     3.128000000
O    -4.776000000     3.044000000     0.022000000
H    -5.305000000     2.646000000    -0.669000000
H    -4.009000000     3.391000000    -0.434000000
O     3.120000000    -5.567000000    -2.817000000
H     2.238000000    -5.221000000    -2.947000000
H     3.670000000    -4.790000000    -2.714000000
O    -1.483000000     4.050000000     3.295000000
H    -1.667000000     3.160000000     2.994000000
H    -1.784000000     4.062000000     4.203000000
O    -0.862000000    -1.972000000     3.708000000
H    -0.392000000    -1.838000000     4.531000000
H    -0.585000000    -1.244000000     3.152000000
O    -0.037000000     1.580000000     2.615000000
H     0.696000000     2.058000000     3.003000000
H     0.302000000     1.258000000     1.780000000
O    -2.496000000    -1.202000000     5.952000000
H    -3.431000000    -1.035000000     6.069000000
H    -2.300000000    -0.864000000     5.078000000
O    -5.899000000     0.775000000    -1.648000000
H    -5.499000000     0.387000000    -2.426000000
H    -6.138000000     0.026000000    -1.102000000
O     1.668000000    -4.099000000     4.151000000
H     1.846000000    -4.198000000     3.216000000
H     2.214000000    -3.361000000     4.421000000
