144
-2820.37557
O    -0.112000000    -4.884000000    -2.978000000
H    -0.181000000    -5.559000000    -2.303000000
H    -0.300000000    -4.065000000    -2.518000000
O    -0.816000000    -5.388000000     3.423000000
H    -0.385000000    -6.220000000     3.619000000
H    -1.035000000    -5.024000000     4.280000000
O     3.882000000    -2.825000000    -6.177000000
H     3.544000000    -3.533000000    -5.629000000
H     3.361000000    -2.872000000    -6.978000000
O    -1.474000000    -3.625000000     5.833000000
H    -1.858000000    -3.033000000     5.187000000
H    -1.572000000    -3.165000000     6.667000000
O    -2.698000000    -1.818000000     4.122000000
H    -2.974000000    -2.177000000     3.279000000
H    -3.332000000    -1.124000000     4.306000000
O    -6.372000000    -0.508000000    -0.022000000
H    -6.091000000    -0.067000000     0.780000000
H    -6.671000000     0.200000000    -0.593000000
O     3.519000000     0.085000000    -8.042000000
H     2.803000000     0.279000000    -8.647000000
H     3.235000000    -0.705000000    -7.581000000
O     7.036000000     1.416000000    -0.039000000
H     6.674000000     0.838000000    -0.711000000
H     6.288000000     1.635000000     0.517000000
O     4.833000000    -1.983000000     1.401000000
H     4.480000000    -1.638000000     0.581000000
H     4.340000000    -2.789000000     1.554000000
O     7.694000000    -3.309000000     0.963000000
H     7.950000000    -3.637000000     0.101000000
H     6.949000000    -2.734000000     0.789000000
O    -4.226000000     4.155000000     1.571000000
H    -3.829000000     5.008000000     1.748000000
H    -4.911000000     4.338000000     0.929000000
O     0.999000000    -2.032000000    -4.107000000
H     0.273000000    -2.059000000    -3.483000000
H     1.674000000    -1.516000000    -3.666000000
O     2.504000000    -4.398000000     1.378000000
H     2.608000000    -5.307000000     1.660000000
H     2.442000000    -3.900000000     2.192000000
O    -0.416000000     4.403000000     0.386000000
H    -0.778000000     5.230000000     0.705000000
H    -1.125000000     4.013000000    -0.125000000
O    -3.453000000    -3.736000000    -1.452000000
H    -3.751000000    -3.543000000    -2.341000000
H    -4.090000000    -4.368000000    -1.118000000
O    -0.332000000     1.658000000    -5.442000000
H     0.122000000     0.915000000    -5.840000000
H    -0.990000000     1.260000000    -4.873000000
O     6.731000000    -0.650000000     3.104000000
H     6.354000000    -1.062000000     2.327000000
H     6.290000000     0.198000000     3.164000000
O    -0.969000000    -2.409000000    -1.803000000
H    -0.874000000    -1.952000000    -0.967000000
H    -1.831000000    -2.822000000    -1.752000000
O    -5.929000000    -2.316000000    -1.876000000
H    -6.147000000    -3.110000000    -1.389000000
H    -5.797000000    -1.650000000    -1.201000000
O    -2.772000000     4.029000000    -4.282000000
H    -3.546000000     3.488000000    -4.439000000
H    -2.168000000     3.791000000    -4.986000000
O    -5.800000000     1.589000000     1.666000000
H    -5.225000000     2.310000000     1.924000000
H    -6.595000000     1.721000000     2.183000000
O     1.613000000    -3.948000000     5.955000000
H     0.658000000    -3.996000000     6.004000000
H     1.844000000    -3.202000000     6.508000000
O    -3.905000000     3.095000000     7.028000000
H    -3.979000000     2.440000000     6.334000000
H    -3.000000000     3.023000000     7.330000000
O     3.783000000    -1.112000000     6.215000000
H     4.697000000    -1.395000000     6.218000000
H     3.633000000    -0.791000000     5.326000000
O    -5.438000000    -3.016000000     4.635000000
H    -4.864000000    -2.282000000     4.417000000
H    -6.217000000    -2.879000000     4.097000000
O     0.466000000    -1.018000000    -6.459000000
H     0.781000000    -1.452000000    -5.666000000
H    -0.432000000    -1.332000000    -6.563000000
O     2.946000000     2.189000000    -2.533000000
H     3.522000000     2.532000000    -3.216000000
H     2.636000000     1.352000000    -2.879000000
O    -3.712000000     2.518000000     4.180000000
H    -3.994000000     3.056000000     3.441000000
H    -2.894000000     2.116000000     3.886000000
O     5.694000000    -4.110000000    -2.036000000
H     5.373000000    -3.504000000    -2.704000000
H     5.036000000    -4.074000000    -1.342000000
O     2.177000000    -4.975000000    -5.279000000
H     2.517000000    -5.631000000    -4.669000000
H     1.780000000    -4.309000000    -4.717000000
O     2.487000000    -2.712000000     3.409000000
H     1.976000000    -3.011000000     4.161000000
H     2.542000000    -1.763000000     3.518000000
O     3.085000000    -6.227000000    -2.891000000
H     3.059000000    -5.410000000    -2.393000000
H     3.897000000    -6.174000000    -3.396000000
O     0.847000000     4.782000000    -5.095000000
H     0.233000000     4.073000000    -5.286000000
H     1.269000000     4.519000000    -4.277000000
O     4.827000000    -1.839000000    -3.775000000
H     4.797000000    -2.045000000    -4.710000000
H     4.036000000    -1.324000000    -3.618000000
O    -2.202000000     0.852000000    -3.891000000
H    -2.768000000     1.420000000    -3.368000000
H    -2.658000000     0.010000000    -3.908000000
O     1.345000000     1.892000000     4.388000000
H     0.518000000     1.427000000     4.261000000
H     1.222000000     2.727000000     3.936000000
O     2.883000000    -3.893000000    -1.203000000
H     3.071000000    -2.957000000    -1.273000000
H     2.908000000    -4.073000000    -0.263000000
O    -4.722000000     0.098000000     4.771000000
H    -5.501000000     0.157000000     5.324000000
H    -4.514000000     1.006000000     4.552000000
O     5.872000000    -0.081000000    -1.670000000
H     6.122000000    -0.749000000    -2.309000000
H     4.939000000    -0.232000000    -1.519000000
O     3.247000000     0.058000000     3.772000000
H     2.567000000     0.604000000     4.166000000
H     3.465000000     0.501000000     2.952000000
O     1.034000000     4.283000000    -2.004000000
H     0.609000000     4.198000000    -1.150000000
H     1.472000000     3.442000000    -2.138000000
O    -3.336000000    -3.083000000     1.658000000
H    -2.564000000    -3.307000000     1.139000000
H    -4.072000000    -3.216000000     1.061000000
O    -1.102000000     6.638000000     1.479000000
H    -1.392000000     6.334000000     2.339000000
H    -0.648000000     7.462000000     1.656000000
O    -2.357000000     3.960000000    -1.357000000
H    -3.233000000     4.280000000    -1.140000000
H    -2.252000000     4.163000000    -2.287000000
O    -0.407000000    -4.011000000     0.818000000
H     0.047000000    -4.272000000     1.619000000
H     0.276000000    -3.622000000     0.272000000
O    -0.778000000     0.573000000     4.817000000
H    -1.271000000    -0.088000000     4.331000000
H    -0.751000000     0.240000000     5.714000000
O     3.442000000     3.301000000     0.120000000
H     2.563000000     3.009000000     0.360000000
H     3.527000000     3.073000000    -0.805000000
O     0.887000000     3.998000000     2.872000000
H     0.290000000     3.994000000     2.124000000
H     0.372000000     4.369000000     3.588000000
