144
-2791.08885
O    -3.847000000    -3.024000000    -0.026000000
H    -3.748000000    -2.267000000     0.551000000
H    -4.474000000    -2.738000000    -0.691000000
O    -0.492000000    -2.964000000    -3.982000000
H    -0.610000000    -2.150000000    -4.471000000
H    -1.287000000    -3.467000000    -4.159000000
O     5.882000000    -0.211000000    -1.330000000
H     5.641000000     0.532000000    -1.883000000
H     6.759000000     0.002000000    -1.012000000
O     1.058000000     3.980000000     0.104000000
H     0.619000000     4.213000000     0.922000000
H     0.439000000     3.404000000    -0.345000000
O     4.757000000     1.609000000     1.496000000
H     4.929000000     1.925000000     2.383000000
H     4.367000000     2.358000000     1.046000000
O    -1.432000000     3.655000000    -2.717000000
H    -1.951000000     4.449000000    -2.842000000
H    -1.454000000     3.501000000    -1.773000000
O    -1.521000000     2.891000000    -0.084000000
H    -1.646000000     3.726000000     0.366000000
H    -1.598000000     2.232000000     0.606000000
O    -1.272000000    -3.809000000     3.684000000
H    -1.034000000    -3.101000000     4.283000000
H    -0.836000000    -3.584000000     2.862000000
O    -3.403000000    -3.844000000     5.508000000
H    -2.988000000    -3.895000000     4.647000000
H    -3.666000000    -2.928000000     5.594000000
O    -6.389000000     3.114000000     2.975000000
H    -6.706000000     4.016000000     3.017000000
H    -5.448000000     3.184000000     3.138000000
O     0.197000000    -3.298000000     1.534000000
H     0.916000000    -3.753000000     1.972000000
H     0.624000000    -2.611000000     1.023000000
O     0.079000000     4.418000000     2.614000000
H     0.451000000     4.975000000     3.298000000
H    -0.366000000     3.718000000     3.091000000
O    -5.457000000     0.664000000    -0.765000000
H    -4.799000000     0.251000000    -0.206000000
H    -5.135000000     1.556000000    -0.895000000
O     2.571000000    -0.208000000     6.128000000
H     2.694000000    -1.039000000     6.588000000
H     2.263000000    -0.460000000     5.258000000
O    -5.512000000    -5.111000000     0.519000000
H    -6.459000000    -5.005000000     0.604000000
H    -5.192000000    -4.236000000     0.300000000
O    -1.530000000    -4.719000000    -0.068000000
H    -2.279000000    -4.123000000    -0.088000000
H    -0.932000000    -4.330000000     0.571000000
O    -6.123000000     0.311000000    -3.326000000
H    -6.165000000     1.211000000    -3.648000000
H    -6.086000000     0.399000000    -2.374000000
O     3.764000000     4.057000000     0.308000000
H     2.826000000     3.875000000     0.265000000
H     3.935000000     4.618000000    -0.448000000
O     4.335000000     1.433000000    -7.042000000
H     3.599000000     1.525000000    -6.437000000
H     5.071000000     1.840000000    -6.587000000
O     1.512000000    -0.169000000    -7.638000000
H     1.329000000     0.136000000    -6.749000000
H     1.934000000     0.577000000    -8.065000000
O     1.941000000    -3.697000000    -4.370000000
H     1.029000000    -3.631000000    -4.085000000
H     2.137000000    -2.837000000    -4.743000000
O    -0.822000000    -5.907000000    -2.217000000
H    -1.521000000    -5.654000000    -2.820000000
H    -1.027000000    -5.447000000    -1.404000000
O     4.756000000     1.819000000    -3.046000000
H     3.831000000     1.724000000    -3.273000000
H     5.199000000     1.927000000    -3.888000000
O    -2.950000000     1.012000000    -2.448000000
H    -2.344000000     0.921000000    -1.713000000
H    -2.489000000     1.574000000    -3.071000000
O     1.963000000    -2.165000000     4.073000000
H     2.575000000    -2.388000000     3.371000000
H     1.670000000    -3.010000000     4.414000000
O    -4.273000000     1.461000000     3.636000000
H    -3.538000000     0.889000000     3.415000000
H    -4.923000000     1.291000000     2.955000000
O    -7.708000000     1.382000000     0.653000000
H    -7.157000000     0.784000000     0.148000000
H    -7.089000000     1.949000000     1.113000000
O    -4.451000000     2.296000000     6.556000000
H    -3.637000000     1.968000000     6.173000000
H    -4.481000000     3.218000000     6.302000000
O     3.968000000     5.293000000     2.822000000
H     3.511000000     4.878000000     3.553000000
H     3.843000000     4.691000000     2.088000000
O     6.679000000     3.394000000    -1.050000000
H     6.437000000     4.259000000    -0.718000000
H     5.864000000     3.037000000    -1.402000000
O     4.642000000    -1.109000000     1.312000000
H     5.299000000    -1.087000000     0.615000000
H     4.425000000    -0.189000000     1.464000000
O    -2.082000000     1.206000000     5.777000000
H    -1.458000000     1.000000000     6.473000000
H    -2.138000000     0.403000000     5.259000000
O    -2.095000000     3.085000000     3.758000000
H    -2.621000000     3.516000000     3.084000000
H    -2.702000000     2.479000000     4.183000000
O    -1.267000000    -0.998000000    -5.507000000
H    -1.039000000    -0.068000000    -5.516000000
H    -2.195000000    -1.014000000    -5.272000000
O    -3.892000000    -1.240000000     6.133000000
H    -4.056000000    -0.725000000     5.343000000
H    -4.438000000    -0.830000000     6.805000000
O     2.804000000    -1.230000000    -4.888000000
H     2.827000000    -0.360000000    -5.288000000
H     3.715000000    -1.523000000    -4.899000000
O    -3.715000000    -1.084000000    -3.864000000
H    -3.533000000    -0.524000000    -3.109000000
H    -4.648000000    -0.958000000    -4.036000000
O     5.677000000    -3.095000000    -2.266000000
H     5.817000000    -2.204000000    -1.947000000
H     4.770000000    -3.293000000    -2.035000000
O    -5.704000000    -2.763000000    -1.902000000
H    -5.316000000    -3.166000000    -2.678000000
H    -5.550000000    -1.825000000    -2.017000000
O     3.292000000    -3.442000000     1.683000000
H     3.081000000    -3.894000000     0.866000000
H     3.597000000    -2.577000000     1.406000000
O    -0.176000000     1.836000000    -4.851000000
H    -0.444000000     2.441000000    -4.159000000
H    -0.795000000     1.997000000    -5.563000000
O     2.866000000    -3.357000000    -1.786000000
H     2.616000000    -3.497000000    -2.699000000
H     2.549000000    -2.477000000    -1.583000000
O    -1.480000000    -1.468000000     7.352000000
H    -2.399000000    -1.630000000     7.139000000
H    -1.018000000    -1.577000000     6.520000000
O    -7.097000000    -1.707000000     4.835000000
H    -7.248000000    -0.769000000     4.722000000
H    -6.342000000    -1.896000000     4.277000000
O     3.562000000     6.114000000    -1.816000000
H     3.813000000     5.687000000    -2.635000000
H     3.017000000     6.852000000    -2.088000000
O     2.307000000     1.839000000    -5.263000000
H     1.363000000     1.758000000    -5.127000000
H     2.495000000     2.761000000    -5.089000000
O    -4.901000000    -1.733000000     3.102000000
H    -4.549000000    -2.608000000     2.937000000
H    -4.440000000    -1.169000000     2.481000000
O    -0.585000000    -1.180000000     4.585000000
H    -1.174000000    -0.917000000     3.878000000
H     0.213000000    -1.463000000     4.140000000
