144
-2816.05271
O    -1.713000000    -0.818000000    -2.717000000
H    -1.329000000    -0.388000000    -3.481000000
H    -1.051000000    -0.722000000    -2.031000000
O    -0.998000000     0.241000000     5.217000000
H    -0.440000000     0.402000000     5.978000000
H    -0.760000000     0.929000000     4.596000000
O    -2.951000000    -0.549000000    -5.542000000
H    -2.412000000     0.221000000    -5.361000000
H    -2.873000000    -0.679000000    -6.487000000
O     4.771000000     2.154000000     3.207000000
H     4.299000000     2.791000000     3.743000000
H     4.185000000     1.979000000     2.471000000
O     3.571000000    -2.547000000     2.483000000
H     4.180000000    -3.285000000     2.500000000
H     3.673000000    -2.173000000     1.607000000
O    -0.584000000     3.668000000     3.963000000
H     0.247000000     3.390000000     3.578000000
H    -0.482000000     4.610000000     4.099000000
O    -5.860000000     1.081000000    -2.739000000
H    -5.465000000     1.852000000    -2.333000000
H    -6.799000000     1.265000000    -2.739000000
O    -5.734000000    -2.640000000     0.164000000
H    -5.153000000    -2.492000000    -0.582000000
H    -5.149000000    -2.903000000     0.875000000
O    -0.195000000     5.051000000    -2.194000000
H    -1.004000000     5.383000000    -2.583000000
H     0.459000000     5.722000000    -2.391000000
O     1.912000000     1.224000000     4.465000000
H     1.908000000     1.669000000     3.617000000
H     2.497000000     0.476000000     4.340000000
O    -3.676000000     4.043000000     0.658000000
H    -4.256000000     3.839000000    -0.076000000
H    -3.927000000     4.927000000     0.924000000
O     0.445000000    -4.720000000     0.527000000
H    -0.063000000    -5.461000000     0.198000000
H     0.681000000    -4.224000000    -0.257000000
O     4.319000000     1.170000000    -6.120000000
H     3.930000000     1.506000000    -5.313000000
H     4.906000000     1.868000000    -6.411000000
O     1.284000000     3.047000000    -3.678000000
H     1.888000000     3.740000000    -3.943000000
H     0.665000000     3.480000000    -3.090000000
O     0.933000000    -3.462000000     3.343000000
H     1.851000000    -3.354000000     3.094000000
H     0.741000000    -4.381000000     3.157000000
O    -2.615000000     2.327000000    -3.334000000
H    -3.096000000     1.500000000    -3.286000000
H    -1.832000000     2.119000000    -3.843000000
O    -3.408000000     3.727000000     3.775000000
H    -3.679000000     3.909000000     2.875000000
H    -2.453000000     3.673000000     3.731000000
O     7.084000000    -1.455000000     3.405000000
H     6.822000000    -1.294000000     2.499000000
H     7.249000000    -2.397000000     3.444000000
O     2.863000000    -6.469000000     0.981000000
H     2.301000000    -5.924000000     1.533000000
H     2.267000000    -7.107000000     0.589000000
O     3.593000000    -2.369000000    -6.935000000
H     2.935000000    -2.941000000    -6.540000000
H     4.218000000    -2.201000000    -6.230000000
O    -3.010000000     3.811000000    -5.596000000
H    -2.607000000     3.527000000    -4.775000000
H    -3.874000000     3.399000000    -5.594000000
O    -4.722000000     3.713000000    -1.844000000
H    -3.944000000     3.451000000    -2.337000000
H    -5.272000000     4.162000000    -2.486000000
O     5.134000000    -3.473000000    -1.088000000
H     4.445000000    -2.841000000    -0.881000000
H     5.744000000    -2.989000000    -1.644000000
O     3.766000000     1.566000000    -3.420000000
H     3.573000000     0.907000000    -2.753000000
H     2.961000000     2.079000000    -3.490000000
O    -0.200000000    -2.445000000     5.528000000
H     0.186000000    -2.749000000     4.706000000
H    -0.449000000    -1.538000000     5.354000000
O    -0.452000000     1.033000000    -4.529000000
H     0.349000000     1.317000000    -4.088000000
H    -0.227000000     1.038000000    -5.460000000
O    -7.578000000    -0.652000000     0.516000000
H    -6.838000000    -1.259000000     0.514000000
H    -7.865000000    -0.621000000    -0.396000000
O     3.890000000     1.335000000     0.779000000
H     4.091000000     1.862000000     0.005000000
H     3.733000000     0.455000000     0.436000000
O    -4.194000000    -3.471000000     2.317000000
H    -4.518000000    -3.108000000     3.141000000
H    -3.241000000    -3.452000000     2.404000000
O     6.094000000    -3.572000000    -4.977000000
H     6.933000000    -3.511000000    -5.433000000
H     5.841000000    -2.662000000    -4.818000000
O    -1.667000000    -3.842000000     2.257000000
H    -1.044000000    -3.421000000     2.850000000
H    -1.124000000    -4.388000000     1.688000000
O     4.773000000    -1.307000000    -3.757000000
H     4.753000000    -0.516000000    -4.295000000
H     4.068000000    -1.184000000    -3.121000000
O    -4.446000000     1.136000000     5.088000000
H    -4.013000000     1.917000000     4.746000000
H    -4.341000000     1.199000000     6.037000000
O    -6.437000000     3.016000000     3.910000000
H    -5.673000000     2.450000000     4.026000000
H    -7.063000000     2.476000000     3.428000000
O    -4.545000000    -1.551000000     4.264000000
H    -4.603000000    -0.604000000     4.394000000
H    -5.455000000    -1.838000000     4.188000000
O    -3.225000000    -1.537000000     6.751000000
H    -2.524000000    -1.021000000     6.353000000
H    -3.697000000    -1.913000000     6.009000000
O    -3.689000000    -3.067000000    -2.480000000
H    -4.380000000    -2.673000000    -3.011000000
H    -3.068000000    -2.354000000    -2.327000000
O     6.105000000    -0.902000000     0.750000000
H     6.188000000     0.041000000     0.610000000
H     5.183000000    -1.090000000     0.573000000
O     1.032000000    -6.106000000     3.310000000
H     1.278000000    -6.950000000     3.690000000
H     0.105000000    -6.201000000     3.095000000
O    -7.714000000    -1.492000000     3.202000000
H    -7.819000000    -0.691000000     3.715000000
H    -7.578000000    -1.186000000     2.305000000
O    -0.995000000     4.080000000     0.464000000
H    -1.893000000     3.759000000     0.543000000
H    -0.890000000     4.274000000    -0.468000000
O     1.477000000     2.721000000     2.075000000
H     2.177000000     2.451000000     1.480000000
H     0.709000000     2.818000000     1.512000000
O     5.025000000    -4.757000000     1.391000000
H     5.185000000    -4.243000000     0.600000000
H     4.431000000    -5.453000000     1.109000000
O    -3.064000000     6.800000000     2.446000000
H    -2.840000000     6.059000000     3.009000000
H    -4.021000000     6.807000000     2.428000000
O     4.232000000    -1.316000000     4.806000000
H     3.846000000    -1.850000000     4.112000000
H     5.166000000    -1.290000000     4.598000000
O     4.315000000     3.458000000    -1.044000000
H     4.767000000     4.302000000    -1.072000000
H     4.346000000     3.140000000    -1.946000000
O     0.213000000     5.947000000     2.119000000
H     0.049000000     6.746000000     1.618000000
H    -0.407000000     5.310000000     1.764000000
O     7.493000000    -1.826000000    -1.587000000
H     7.848000000    -2.592000000    -1.137000000
H     7.172000000    -1.262000000    -0.883000000
