144
-2828.92257
O    -0.289000000    -3.414000000    -5.122000000
H    -0.482000000    -4.333000000    -4.938000000
H    -0.900000000    -3.177000000    -5.821000000
O    -1.133000000    -1.350000000    -3.360000000
H    -0.762000000    -1.948000000    -4.009000000
H    -0.955000000    -1.769000000    -2.518000000
O    -0.002000000    -1.579000000     2.907000000
H     0.946000000    -1.576000000     3.033000000
H    -0.118000000    -1.529000000     1.958000000
O    -5.650000000    -1.903000000    -4.446000000
H    -6.011000000    -1.925000000    -5.332000000
H    -5.205000000    -1.057000000    -4.389000000
O     0.630000000     0.676000000     5.266000000
H     0.713000000     1.073000000     4.399000000
H     1.532000000     0.504000000     5.538000000
O     1.963000000     2.209000000     3.398000000
H     2.193000000     2.348000000     2.479000000
H     1.024000000     2.391000000     3.440000000
O    -1.186000000    -6.625000000    -0.819000000
H    -1.592000000    -7.420000000    -0.475000000
H    -1.923000000    -6.058000000    -1.046000000
O     1.428000000    -3.096000000    -2.853000000
H     1.296000000    -3.958000000    -2.459000000
H     1.097000000    -3.188000000    -3.746000000
O    -6.798000000     3.437000000    -2.338000000
H    -6.268000000     3.187000000    -3.095000000
H    -6.944000000     2.617000000    -1.867000000
O    -3.118000000    -4.978000000    -1.873000000
H    -3.122000000    -4.195000000    -2.423000000
H    -4.030000000    -5.268000000    -1.861000000
O    -1.172000000     3.509000000    -2.990000000
H    -0.834000000     4.311000000    -3.388000000
H    -0.755000000     2.803000000    -3.485000000
O     2.716000000    -1.440000000     3.359000000
H     3.234000000    -1.976000000     2.758000000
H     3.247000000    -0.655000000     3.497000000
O     5.579000000     2.341000000     0.371000000
H     6.057000000     2.427000000     1.196000000
H     4.745000000     1.941000000     0.617000000
O    -1.620000000     4.651000000     0.863000000
H    -1.715000000     5.514000000     1.265000000
H    -2.512000000     4.393000000     0.633000000
O    -1.079000000     1.035000000    -4.899000000
H    -0.847000000     0.465000000    -4.166000000
H    -1.458000000     0.445000000    -5.551000000
O    -5.547000000     2.489000000    -4.802000000
H    -4.739000000     2.603000000    -4.302000000
H    -5.348000000     2.850000000    -5.665000000
O    -0.508000000     2.574000000     3.478000000
H    -1.328000000     2.079000000     3.467000000
H    -0.623000000     3.242000000     2.801000000
O     4.977000000     2.824000000     3.023000000
H     4.121000000     2.468000000     2.786000000
H     4.830000000     3.270000000     3.856000000
O    -3.323000000     2.372000000     3.138000000
H    -4.147000000     1.976000000     2.854000000
H    -3.531000000     2.777000000     3.980000000
O     7.204000000     1.287000000     3.499000000
H     7.790000000     2.025000000     3.333000000
H     6.328000000     1.674000000     3.507000000
O     7.137000000     4.395000000    -1.258000000
H     6.727000000     3.994000000    -2.024000000
H     6.641000000     4.052000000    -0.514000000
O    -3.657000000     2.660000000    -2.731000000
H    -2.726000000     2.860000000    -2.826000000
H    -3.996000000     3.359000000    -2.171000000
O     4.645000000    -2.263000000     1.419000000
H     4.633000000    -1.370000000     1.075000000
H     4.660000000    -2.819000000     0.640000000
O    -5.820000000     0.790000000     2.549000000
H    -6.225000000     0.243000000     1.876000000
H    -6.513000000     1.393000000     2.817000000
O     2.761000000     0.167000000    -3.833000000
H     3.595000000    -0.290000000    -3.724000000
H     2.290000000     0.004000000    -3.015000000
O    -0.392000000    -4.485000000     4.073000000
H     0.074000000    -5.060000000     3.466000000
H    -0.397000000    -3.632000000     3.639000000
O    -3.824000000    -0.020000000    -3.525000000
H    -3.929000000     0.816000000    -3.070000000
H    -2.892000000    -0.221000000    -3.445000000
O     7.115000000     0.077000000    -3.559000000
H     6.621000000    -0.728000000    -3.714000000
H     6.977000000     0.267000000    -2.631000000
O     4.141000000     4.564000000    -0.963000000
H     3.798000000     4.161000000    -1.761000000
H     4.494000000     3.831000000    -0.458000000
O     1.238000000    -5.877000000    -1.538000000
H     1.637000000    -6.452000000    -0.885000000
H     0.296000000    -6.002000000    -1.423000000
O     5.310000000    -2.443000000    -4.333000000
H     4.885000000    -2.414000000    -3.476000000
H     5.802000000    -3.264000000    -4.329000000
O     2.716000000     3.745000000     5.370000000
H     2.304000000     3.093000000     4.805000000
H     2.454000000     4.586000000     4.996000000
O     3.863000000    -2.148000000    -2.093000000
H     2.952000000    -2.345000000    -2.309000000
H     3.808000000    -1.529000000    -1.365000000
O    -1.711000000    -0.698000000     5.506000000
H    -1.078000000     0.020000000     5.516000000
H    -1.501000000    -1.193000000     4.714000000
O     5.994000000    -2.800000000     3.804000000
H     6.589000000    -2.050000000     3.814000000
H     5.554000000    -2.746000000     2.956000000
O    -4.068000000    -1.544000000     2.473000000
H    -4.713000000    -0.855000000     2.634000000
H    -3.229000000    -1.144000000     2.704000000
O    -4.360000000    -2.797000000     4.826000000
H    -4.188000000    -3.618000000     4.365000000
H    -4.405000000    -2.139000000     4.132000000
O    -5.216000000     4.121000000    -0.135000000
H    -5.849000000     4.673000000     0.324000000
H    -5.750000000     3.572000000    -0.710000000
O    -3.233000000    -3.286000000    -4.027000000
H    -3.958000000    -2.818000000    -4.442000000
H    -2.574000000    -2.611000000    -3.865000000
O     6.421000000    -0.388000000    -0.943000000
H     6.628000000    -0.967000000    -0.210000000
H     5.568000000    -0.014000000    -0.720000000
O    -7.268000000    -1.151000000     1.187000000
H    -7.759000000    -1.532000000     1.915000000
H    -6.632000000    -1.825000000     0.947000000
O    -5.834000000    -3.332000000     0.617000000
H    -4.952000000    -2.978000000     0.500000000
H    -6.038000000    -3.749000000    -0.221000000
O     0.175000000     4.804000000    -0.983000000
H    -0.324000000     4.809000000    -0.166000000
H    -0.370000000     4.306000000    -1.593000000
O    -7.000000000     1.293000000    -0.964000000
H    -6.977000000     0.394000000    -1.293000000
H    -7.452000000     1.228000000    -0.123000000
O     2.239000000     6.210000000    -0.110000000
H     2.930000000     5.570000000    -0.282000000
H     1.477000000     5.871000000    -0.580000000
O    -6.184000000    -3.911000000    -2.748000000
H    -6.456000000    -4.056000000    -3.654000000
H    -5.835000000    -3.020000000    -2.742000000
O    -4.156000000     5.842000000     1.740000000
H    -4.662000000     5.038000000     1.618000000
H    -4.035000000     5.907000000     2.687000000
O     1.495000000     7.633000000     1.955000000
H     1.911000000     8.401000000     1.563000000
H     1.592000000     6.945000000     1.296000000
