144
-2824.13293
O     2.609000000    -3.502000000     4.031000000
H     2.363000000    -2.660000000     3.649000000
H     1.866000000    -3.741000000     4.585000000
O    -1.884000000    -0.488000000     4.246000000
H    -0.940000000    -0.609000000     4.143000000
H    -2.146000000    -1.166000000     4.868000000
O    -4.826000000    -2.010000000    -6.546000000
H    -5.675000000    -1.568000000    -6.514000000
H    -4.512000000    -1.991000000    -5.643000000
O    -4.361000000     3.300000000    -1.312000000
H    -4.352000000     3.501000000    -0.376000000
H    -4.522000000     2.357000000    -1.352000000
O    -0.128000000     5.766000000     3.548000000
H     0.669000000     5.358000000     3.212000000
H     0.182000000     6.511000000     4.063000000
O    -1.767000000    -5.072000000    -0.004000000
H    -0.830000000    -4.881000000    -0.028000000
H    -2.096000000    -4.563000000     0.737000000
O    -2.799000000     4.370000000    -3.283000000
H    -3.033000000     4.041000000    -2.415000000
H    -2.416000000     3.615000000    -3.731000000
O     1.479000000     0.623000000     6.067000000
H     1.202000000     1.533000000     6.174000000
H     1.164000000     0.379000000     5.197000000
O     0.843000000     3.531000000     5.788000000
H     0.772000000     3.262000000     4.872000000
H     0.243000000     4.273000000     5.865000000
O    -2.839000000     3.546000000     2.956000000
H    -2.347000000     4.291000000     3.303000000
H    -2.811000000     3.662000000     2.007000000
O     0.206000000     5.452000000    -1.561000000
H    -0.105000000     5.527000000    -0.659000000
H    -0.541000000     5.096000000    -2.043000000
O     0.026000000     5.704000000    -5.559000000
H     0.322000000     5.627000000    -4.652000000
H    -0.309000000     4.834000000    -5.777000000
O     0.163000000    -1.809000000    -5.394000000
H    -0.366000000    -2.264000000    -4.739000000
H     0.999000000    -1.647000000    -4.956000000
O     5.587000000    -3.962000000    -2.190000000
H     5.544000000    -3.841000000    -3.139000000
H     5.396000000    -3.096000000    -1.830000000
O     3.090000000    -6.665000000     2.284000000
H     2.882000000    -7.379000000     1.682000000
H     3.213000000    -5.902000000     1.718000000
O    -2.406000000     1.944000000     5.175000000
H    -2.901000000     2.391000000     4.488000000
H    -2.186000000     1.093000000     4.797000000
O    -0.639000000     2.838000000    -6.091000000
H    -0.682000000     1.966000000    -6.484000000
H    -1.546000000     3.045000000    -5.867000000
O     4.468000000    -1.375000000     1.393000000
H     5.171000000    -1.540000000     2.021000000
H     3.694000000    -1.220000000     1.934000000
O     6.521000000    -1.411000000     3.040000000
H     6.899000000    -0.746000000     3.616000000
H     6.920000000    -2.232000000     3.328000000
O     4.898000000    -1.122000000    -1.293000000
H     3.985000000    -1.129000000    -1.581000000
H     4.851000000    -1.262000000    -0.347000000
O    -4.847000000     0.570000000    -0.591000000
H    -4.522000000    -0.329000000    -0.546000000
H    -5.009000000     0.813000000     0.320000000
O     2.416000000     3.643000000    -5.668000000
H     1.627000000     3.229000000    -5.317000000
H     2.439000000     3.376000000    -6.587000000
O     1.827000000     2.467000000     3.159000000
H     1.577000000     1.556000000     3.314000000
H     2.682000000     2.556000000     3.581000000
O     1.689000000    -3.457000000    -3.028000000
H     2.206000000    -4.210000000    -3.314000000
H     2.145000000    -2.699000000    -3.394000000
O    -5.162000000     0.408000000    -3.576000000
H    -5.170000000    -0.531000000    -3.393000000
H    -5.292000000     0.820000000    -2.721000000
O     5.272000000    -4.938000000     3.504000000
H     4.726000000    -4.155000000     3.581000000
H     4.726000000    -5.565000000     3.029000000
O    -4.388000000    -2.295000000    -0.426000000
H    -5.227000000    -2.518000000    -0.024000000
H    -4.340000000    -2.850000000    -1.204000000
O    -0.069000000    -2.270000000     5.716000000
H     0.099000000    -1.331000000     5.644000000
H    -0.028000000    -2.591000000     4.815000000
O     1.709000000    -1.472000000     8.123000000
H     1.471000000    -0.662000000     7.672000000
H     2.469000000    -1.799000000     7.641000000
O    -3.450000000     5.116000000     0.559000000
H    -3.964000000     5.555000000     1.236000000
H    -2.805000000     5.769000000     0.287000000
O    -2.086000000    -2.720000000     1.373000000
H    -1.604000000    -1.909000000     1.213000000
H    -2.930000000    -2.586000000     0.941000000
O     2.337000000     4.994000000     2.522000000
H     3.268000000     4.946000000     2.738000000
H     2.063000000     4.081000000     2.437000000
O    -4.749000000     1.788000000     2.006000000
H    -5.337000000     2.378000000     2.477000000
H    -3.885000000     1.964000000     2.378000000
O     1.996000000     2.877000000    -1.324000000
H     1.516000000     3.697000000    -1.209000000
H     1.918000000     2.434000000    -0.480000000
O     1.015000000    -4.440000000    -0.403000000
H     0.965000000    -4.214000000    -1.332000000
H     1.590000000    -3.775000000    -0.025000000
O    -1.247000000    -2.958000000    -3.453000000
H    -1.371000000    -2.537000000    -2.603000000
H    -0.501000000    -3.544000000    -3.325000000
O     4.366000000    -0.565000000     5.002000000
H     5.011000000    -0.571000000     4.295000000
H     3.532000000    -0.741000000     4.567000000
O    -0.495000000    -3.763000000     3.558000000
H    -1.324000000    -3.463000000     3.186000000
H    -0.452000000    -4.692000000     3.332000000
O     2.555000000    -0.899000000    -4.284000000
H     3.247000000    -0.906000000    -4.946000000
H     2.650000000    -0.052000000    -3.848000000
O    -4.016000000    -2.558000000    -3.882000000
H    -4.606000000    -3.165000000    -3.436000000
H    -3.284000000    -3.103000000    -4.169000000
O    -3.232000000     1.926000000    -4.873000000
H    -3.840000000     1.391000000    -4.363000000
H    -3.120000000     1.445000000    -5.693000000
O     5.818000000     0.288000000    -3.613000000
H     5.381000000    -0.358000000    -3.058000000
H     6.634000000     0.486000000    -3.153000000
O    -0.201000000     0.222000000    -7.121000000
H     0.125000000    -0.571000000    -6.696000000
H    -1.151000000     0.180000000    -7.010000000
O    -0.980000000     2.248000000     7.618000000
H    -1.389000000     2.223000000     6.752000000
H    -0.262000000     2.875000000     7.525000000
O     2.694000000     1.671000000    -3.622000000
H     2.363000000     2.215000000    -2.908000000
H     2.767000000     2.269000000    -4.366000000
O    -3.061000000     0.214000000    -7.073000000
H    -2.941000000     0.599000000    -7.941000000
H    -3.749000000    -0.440000000    -7.193000000
O     4.011000000    -2.422000000     6.759000000
H     4.648000000    -3.137000000     6.774000000
H     4.320000000    -1.842000000     6.063000000
O     4.319000000    -5.281000000    -0.133000000
H     4.464000000    -4.779000000    -0.936000000
H     4.970000000    -5.982000000    -0.169000000
