144
-2801.62675
O    -3.200000000    -5.273000000    -5.620000000
H    -2.557000000    -4.617000000    -5.351000000
H    -3.221000000    -5.210000000    -6.575000000
O    -0.474000000    -0.346000000     5.652000000
H     0.073000000    -0.288000000     4.868000000
H    -1.319000000    -0.662000000     5.331000000
O    -2.966000000     1.672000000     2.078000000
H    -2.388000000     2.014000000     2.761000000
H    -3.685000000     2.302000000     2.036000000
O    -0.883000000     3.756000000    -2.401000000
H    -1.619000000     3.344000000    -1.948000000
H    -1.097000000     3.674000000    -3.330000000
O    -0.630000000     4.678000000     1.130000000
H    -1.167000000     5.266000000     0.598000000
H     0.269000000     4.860000000     0.855000000
O    -2.568000000     3.073000000    -0.331000000
H    -2.719000000     2.405000000     0.339000000
H    -1.757000000     3.503000000    -0.061000000
O    -4.120000000     1.972000000    -2.855000000
H    -5.040000000     1.752000000    -3.002000000
H    -4.133000000     2.566000000    -2.104000000
O    -3.704000000     1.983000000    -5.563000000
H    -3.478000000     1.119000000    -5.907000000
H    -3.924000000     1.826000000    -4.645000000
O     3.786000000    -0.274000000    -5.092000000
H     3.170000000    -0.819000000    -4.602000000
H     3.487000000    -0.331000000    -5.999000000
O    -1.575000000    -3.305000000    -4.607000000
H    -1.066000000    -2.638000000    -5.068000000
H    -1.165000000    -3.365000000    -3.744000000
O     6.422000000     2.431000000     0.213000000
H     6.526000000     1.532000000    -0.100000000
H     5.934000000     2.345000000     1.032000000
O     1.444000000    -3.275000000     0.962000000
H     0.771000000    -2.702000000     0.594000000
H     1.700000000    -2.848000000     1.780000000
O    -0.427000000    -2.825000000    -8.290000000
H    -0.177000000    -2.223000000    -8.991000000
H    -0.254000000    -2.339000000    -7.484000000
O     2.769000000     1.119000000     5.901000000
H     2.831000000     2.071000000     5.834000000
H     2.318000000     0.851000000     5.101000000
O     0.164000000    -4.535000000    -2.476000000
H     0.559000000    -5.157000000    -3.088000000
H     0.862000000    -4.337000000    -1.852000000
O    -5.283000000    -4.944000000    -3.497000000
H    -4.616000000    -4.666000000    -4.125000000
H    -5.903000000    -5.455000000    -4.017000000
O     2.076000000    -4.867000000     3.853000000
H     2.558000000    -4.225000000     3.332000000
H     1.350000000    -4.372000000     4.232000000
O     4.746000000     2.378000000     2.352000000
H     3.822000000     2.145000000     2.259000000
H     4.758000000     3.031000000     3.053000000
O     4.721000000    -0.163000000     7.435000000
H     5.504000000    -0.108000000     6.887000000
H     4.050000000     0.310000000     6.942000000
O     4.975000000    -0.793000000     2.690000000
H     4.783000000     0.138000000     2.801000000
H     4.767000000    -0.973000000     1.773000000
O     2.546000000    -2.202000000     3.099000000
H     3.480000000    -1.995000000     3.074000000
H     2.130000000    -1.394000000     3.399000000
O    -0.028000000    -1.390000000    -6.016000000
H    -0.161000000    -0.443000000    -6.049000000
H     0.820000000    -1.498000000    -5.585000000
O    -3.838000000    -1.583000000    -6.141000000
H    -4.512000000    -1.698000000    -5.471000000
H    -3.136000000    -2.180000000    -5.880000000
O    -0.147000000    -3.605000000     4.584000000
H    -0.729000000    -4.329000000     4.816000000
H    -0.619000000    -3.125000000     3.904000000
O     1.958000000     3.644000000     4.656000000
H     2.728000000     4.148000000     4.391000000
H     1.803000000     3.042000000     3.928000000
O     3.501000000     6.715000000     2.296000000
H     2.979000000     5.916000000     2.227000000
H     3.258000000     7.088000000     3.144000000
O     2.312000000     4.411000000     1.602000000
H     2.378000000     3.579000000     2.071000000
H     2.355000000     4.168000000     0.677000000
O    -4.264000000    -5.001000000     1.218000000
H    -4.626000000    -4.314000000     0.658000000
H    -4.895000000    -5.718000000     1.156000000
O     6.320000000    -0.179000000     4.976000000
H     7.091000000    -0.746000000     4.993000000
H     5.943000000    -0.313000000     4.106000000
O    -0.161000000     5.562000000     4.419000000
H    -0.707000000     5.320000000     3.671000000
H     0.453000000     4.834000000     4.513000000
O     1.385000000     4.318000000    -1.140000000
H     0.636000000     3.879000000    -1.545000000
H     1.654000000     4.974000000    -1.783000000
O    -2.794000000    -0.770000000     3.952000000
H    -2.316000000    -0.048000000     3.545000000
H    -2.630000000    -1.519000000     3.378000000
O    -2.112000000    -3.242000000     2.517000000
H    -2.254000000    -3.378000000     1.581000000
H    -2.738000000    -3.830000000     2.942000000
O    -0.772000000     2.888000000     3.282000000
H    -0.968000000     3.510000000     2.581000000
H     0.071000000     2.507000000     3.036000000
O     4.569000000     0.403000000    -2.130000000
H     5.383000000     0.280000000    -1.642000000
H     3.886000000     0.078000000    -1.542000000
O     4.238000000    -2.920000000     6.791000000
H     3.338000000    -2.867000000     6.470000000
H     4.334000000    -2.159000000     7.365000000
O     4.795000000     4.020000000     4.421000000
H     5.451000000     3.561000000     4.945000000
H     4.951000000     4.947000000     4.600000000
O    -4.518000000    -0.383000000     0.223000000
H    -4.032000000    -0.011000000     0.959000000
H    -4.595000000     0.338000000    -0.402000000
O    -1.989000000    -4.144000000    -0.265000000
H    -1.443000000    -4.486000000    -0.973000000
H    -2.492000000    -4.901000000     0.035000000
O     3.325000000     2.666000000    -3.742000000
H     2.634000000     3.105000000    -3.245000000
H     3.795000000     2.146000000    -3.090000000
O     1.707000000    -2.418000000     6.264000000
H     1.777000000    -1.504000000     5.989000000
H     1.058000000    -2.797000000     5.672000000
O     2.217000000    -2.546000000    -4.870000000
H     2.210000000    -3.013000000    -5.705000000
H     2.312000000    -3.234000000    -4.211000000
O     3.849000000    -1.956000000     0.072000000
H     3.413000000    -2.777000000     0.301000000
H     4.760000000    -2.204000000    -0.085000000
O    -1.245000000     2.261000000     5.820000000
H    -0.537000000     1.624000000     5.908000000
H    -1.220000000     2.523000000     4.900000000
O    -5.183000000    -1.596000000    -3.980000000
H    -6.062000000    -1.220000000    -4.018000000
H    -4.682000000    -0.981000000    -3.444000000
O    -4.735000000    -3.092000000    -0.442000000
H    -4.505000000    -2.212000000    -0.143000000
H    -4.187000000    -3.233000000    -1.214000000
O    -3.822000000    -6.695000000    -1.411000000
H    -3.877000000    -7.245000000    -2.192000000
H    -3.952000000    -5.804000000    -1.737000000
O     1.648000000    -0.455000000     8.952000000
H     2.164000000    -0.211000000     8.183000000
H     0.997000000     0.242000000     9.034000000
