144
-2841.84090
O     1.532000000     2.903000000     7.540000000
H     1.756000000     2.149000000     8.086000000
H     0.898000000     2.561000000     6.910000000
O     4.315000000    -3.156000000     2.292000000
H     3.652000000    -2.701000000     2.811000000
H     4.702000000    -2.473000000     1.745000000
O    -2.585000000     3.142000000    -2.126000000
H    -2.685000000     3.249000000    -1.181000000
H    -3.346000000     2.625000000    -2.391000000
O    -2.217000000     4.101000000     2.727000000
H    -1.918000000     4.254000000     3.624000000
H    -2.185000000     3.150000000     2.623000000
O     1.153000000     4.525000000    -4.994000000
H     0.846000000     5.430000000    -4.935000000
H     0.354000000     3.999000000    -4.965000000
O    -0.328000000     2.098000000     5.473000000
H    -0.120000000     3.027000000     5.369000000
H     0.154000000     1.665000000     4.769000000
O    -1.761000000    -0.484000000     4.336000000
H    -1.477000000    -1.397000000     4.288000000
H    -0.958000000     0.023000000     4.215000000
O    -3.176000000     1.715000000     3.404000000
H    -4.115000000     1.579000000     3.276000000
H    -2.864000000     0.891000000     3.778000000
O     3.418000000    -3.590000000    -1.891000000
H     4.040000000    -2.867000000    -1.808000000
H     3.880000000    -4.346000000    -1.529000000
O     7.680000000    -1.788000000     1.185000000
H     6.971000000    -1.153000000     1.087000000
H     7.615000000    -2.083000000     2.093000000
O    -1.019000000    -3.086000000     4.431000000
H    -1.507000000    -3.809000000     4.826000000
H    -0.435000000    -3.508000000     3.800000000
O    -3.389000000     3.321000000     0.431000000
H    -3.194000000     3.806000000     1.233000000
H    -3.671000000     2.459000000     0.735000000
O    -1.766000000    -1.895000000    -6.901000000
H    -2.662000000    -1.998000000    -7.220000000
H    -1.217000000    -2.177000000    -7.633000000
O     5.475000000    -1.910000000    -2.534000000
H     5.448000000    -1.044000000    -2.942000000
H     6.345000000    -1.961000000    -2.138000000
O     5.342000000     2.305000000     1.273000000
H     4.554000000     2.849000000     1.289000000
H     6.055000000     2.922000000     1.111000000
O     4.051000000    -3.221000000    -4.820000000
H     3.912000000    -3.309000000    -3.877000000
H     4.466000000    -4.044000000    -5.078000000
O    -4.790000000     0.783000000     0.488000000
H    -5.516000000     0.240000000     0.793000000
H    -4.005000000     0.318000000     0.776000000
O     6.008000000    -1.543000000     5.253000000
H     6.624000000    -0.811000000     5.227000000
H     5.178000000    -1.169000000     4.958000000
O     0.520000000     3.739000000    -0.750000000
H    -0.086000000     4.475000000    -0.659000000
H     0.023000000     2.980000000    -0.445000000
O     5.304000000    -0.374000000     1.832000000
H     5.412000000     0.462000000     1.380000000
H     4.395000000    -0.367000000     2.134000000
O    -1.582000000     2.012000000    -7.752000000
H    -2.406000000     2.493000000    -7.831000000
H    -1.685000000     1.489000000    -6.957000000
O    -4.848000000     1.550000000    -2.496000000
H    -5.174000000     2.446000000    -2.574000000
H    -4.854000000     1.374000000    -1.556000000
O     0.016000000    -2.186000000    -4.663000000
H     0.784000000    -1.971000000    -5.192000000
H    -0.725000000    -2.074000000    -5.259000000
O     3.154000000    -1.223000000     6.778000000
H     2.970000000    -1.612000000     7.633000000
H     2.889000000    -1.893000000     6.148000000
O    -2.718000000     5.606000000    -3.454000000
H    -2.368000000     6.275000000    -2.865000000
H    -2.397000000     4.779000000    -3.094000000
O     2.082000000     2.717000000     3.610000000
H     2.095000000     1.789000000     3.842000000
H     2.410000000     3.164000000     4.391000000
O     0.848000000    -4.090000000    -3.063000000
H     0.454000000    -3.502000000    -3.708000000
H     1.490000000    -3.547000000    -2.606000000
O    -2.615000000    -4.408000000    -1.704000000
H    -2.440000000    -4.025000000    -0.844000000
H    -2.194000000    -5.267000000    -1.673000000
O    -5.488000000    -0.596000000    -4.063000000
H    -5.186000000    -1.340000000    -3.543000000
H    -5.153000000     0.172000000    -3.600000000
O     4.757000000    -5.229000000    -0.006000000
H     3.904000000    -5.628000000     0.168000000
H     5.009000000    -4.831000000     0.828000000
O    -0.044000000    -0.705000000     6.861000000
H    -0.568000000     0.095000000     6.828000000
H     0.439000000    -0.710000000     6.035000000
O     3.407000000     0.612000000     4.909000000
H     3.031000000     0.032000000     4.247000000
H     3.060000000     0.284000000     5.739000000
O     0.955000000    -4.056000000     2.464000000
H     0.172000000    -4.034000000     1.914000000
H     1.514000000    -4.719000000     2.059000000
O     2.662000000     3.853000000     0.935000000
H     2.268000000     3.487000000     1.727000000
H     1.961000000     3.825000000     0.284000000
O    -0.946000000    -5.808000000     0.525000000
H    -0.638000000    -4.962000000     0.200000000
H    -0.339000000    -6.444000000     0.148000000
O    -0.824000000    -2.952000000     0.692000000
H    -0.250000000    -2.345000000     0.224000000
H    -1.659000000    -2.488000000     0.759000000
O    -2.768000000    -4.456000000    -5.432000000
H    -3.637000000    -4.843000000    -5.328000000
H    -2.891000000    -3.531000000    -5.218000000
O    -3.119000000    -1.078000000     1.794000000
H    -2.733000000    -0.949000000     2.660000000
H    -3.906000000    -1.597000000     1.957000000
O     5.731000000     1.772000000     4.077000000
H     4.890000000     1.505000000     4.450000000
H     5.617000000     1.669000000     3.132000000
O     2.406000000    -2.741000000     4.426000000
H     2.257000000    -1.829000000     4.177000000
H     1.850000000    -3.246000000     3.833000000
O     2.076000000    -1.973000000    -6.286000000
H     2.456000000    -1.262000000    -6.801000000
H     2.774000000    -2.232000000    -5.684000000
O     5.476000000     0.575000000    -3.271000000
H     4.538000000     0.528000000    -3.087000000
H     5.532000000     1.002000000    -4.126000000
O    -4.463000000    -3.104000000    -3.269000000
H    -5.139000000    -3.780000000    -3.239000000
H    -3.790000000    -3.411000000    -2.662000000
O    -1.125000000     2.768000000    -4.399000000
H    -1.452000000     2.790000000    -3.500000000
H    -1.615000000     2.059000000    -4.815000000
O    -2.615000000     0.631000000    -5.673000000
H    -2.632000000    -0.271000000    -5.353000000
H    -3.536000000     0.857000000    -5.802000000
O     1.978000000     2.330000000    -3.074000000
H     2.019000000     2.443000000    -2.124000000
H     1.114000000     2.662000000    -3.317000000
O    -1.149000000    -6.031000000    -3.514000000
H    -0.584000000    -5.264000000    -3.422000000
H    -2.012000000    -5.670000000    -3.716000000
O    -1.265000000     5.681000000     0.372000000
H    -1.615000000     5.267000000     1.161000000
H    -0.731000000     6.405000000     0.698000000
