144
-2790.17870
O    -1.568000000     2.195000000    -6.339000000
H    -0.874000000     2.643000000    -5.855000000
H    -2.264000000     2.066000000    -5.694000000
O    -0.751000000     1.363000000     5.915000000
H     0.018000000     1.811000000     5.563000000
H    -1.237000000     1.079000000     5.141000000
O     1.071000000    -6.063000000    -3.270000000
H     1.228000000    -5.554000000    -4.065000000
H     1.946000000    -6.245000000    -2.926000000
O    -3.237000000    -4.086000000     6.355000000
H    -4.151000000    -3.886000000     6.153000000
H    -2.791000000    -3.240000000     6.307000000
O     1.737000000     2.471000000     5.151000000
H     2.165000000     2.353000000     5.998000000
H     1.776000000     3.414000000     4.992000000
O     1.378000000    -4.741000000     0.013000000
H     0.428000000    -4.858000000     0.035000000
H     1.723000000    -5.615000000    -0.172000000
O    -4.651000000    -0.870000000     0.680000000
H    -4.442000000    -1.465000000     1.399000000
H    -3.897000000    -0.927000000     0.093000000
O    -0.437000000     3.142000000    -4.215000000
H    -1.233000000     3.283000000    -3.702000000
H     0.268000000     3.474000000    -3.659000000
O     0.379000000     3.131000000     2.300000000
H     0.218000000     3.828000000     2.936000000
H    -0.153000000     2.398000000     2.610000000
O    -2.877000000    -1.475000000     5.350000000
H    -2.218000000    -0.995000000     4.849000000
H    -3.492000000    -0.803000000     5.643000000
O     3.907000000     0.202000000    -5.962000000
H     3.031000000     0.573000000    -6.065000000
H     3.975000000     0.006000000    -5.027000000
O     1.616000000    -3.801000000     7.231000000
H     1.132000000    -3.807000000     6.405000000
H     2.006000000    -4.673000000     7.287000000
O    -4.343000000     1.846000000    -0.967000000
H    -4.347000000     1.931000000    -0.013000000
H    -5.243000000     2.043000000    -1.228000000
O    -2.529000000     3.638000000    -1.983000000
H    -2.895000000     2.886000000    -1.517000000
H    -1.760000000     3.886000000    -1.470000000
O    -4.771000000     2.958000000     1.603000000
H    -5.638000000     2.848000000     1.212000000
H    -4.947000000     3.148000000     2.525000000
O    -3.050000000    -2.449000000     2.710000000
H    -3.407000000    -2.481000000     3.597000000
H    -2.282000000    -1.882000000     2.780000000
O     4.360000000    -1.608000000    -3.863000000
H     5.177000000    -2.010000000    -4.159000000
H     4.320000000    -1.806000000    -2.927000000
O     0.615000000    -5.572000000     4.102000000
H     0.881000000    -4.656000000     4.186000000
H    -0.334000000    -5.558000000     4.226000000
O     5.581000000    -1.754000000    -1.232000000
H     5.275000000    -1.334000000    -0.428000000
H     6.479000000    -1.440000000    -1.340000000
O     4.295000000    -0.626000000     1.020000000
H     3.685000000     0.111000000     1.046000000
H     3.734000000    -1.398000000     0.945000000
O    -0.635000000    -2.612000000    -5.966000000
H    -0.572000000    -3.061000000    -6.809000000
H     0.252000000    -2.295000000    -5.796000000
O     4.652000000    -4.181000000    -1.104000000
H     4.962000000    -3.282000000    -1.214000000
H     4.124000000    -4.157000000    -0.307000000
O    -3.353000000    -4.785000000     1.106000000
H    -3.172000000    -4.090000000     1.739000000
H    -4.219000000    -4.574000000     0.759000000
O    -0.505000000     0.072000000     8.745000000
H    -0.627000000     0.479000000     7.887000000
H     0.322000000    -0.405000000     8.668000000
O     4.079000000     2.551000000    -1.811000000
H     4.404000000     3.379000000    -1.457000000
H     4.262000000     1.909000000    -1.124000000
O    -2.053000000     3.667000000     3.948000000
H    -2.570000000     3.565000000     4.747000000
H    -2.025000000     2.789000000     3.567000000
O     2.007000000     4.676000000    -5.913000000
H     1.887000000     4.408000000    -5.002000000
H     1.134000000     4.941000000    -6.202000000
O     2.835000000    -0.736000000     4.890000000
H     3.067000000    -0.900000000     5.805000000
H     3.007000000     0.197000000     4.763000000
O     3.503000000    -3.651000000     1.042000000
H     2.649000000    -4.018000000     0.812000000
H     3.550000000    -3.735000000     1.995000000
O    -2.015000000    -5.697000000     4.515000000
H    -2.133000000    -5.013000000     5.175000000
H    -2.876000000    -5.790000000     4.109000000
O    -4.485000000     0.891000000     3.558000000
H    -4.730000000     1.062000000     2.648000000
H    -3.528000000     0.873000000     3.549000000
O    -3.707000000     5.952000000     4.042000000
H    -3.677000000     5.906000000     4.998000000
H    -3.071000000     5.298000000     3.751000000
O    -4.823000000     4.187000000    -3.931000000
H    -5.210000000     5.026000000    -4.182000000
H    -4.186000000     4.411000000    -3.253000000
O     3.981000000    -3.256000000     3.657000000
H     3.597000000    -2.403000000     3.861000000
H     4.744000000    -3.319000000     4.231000000
O     1.765000000     1.608000000    -6.312000000
H     0.977000000     1.465000000    -6.835000000
H     1.552000000     2.361000000    -5.760000000
O     2.127000000     3.780000000    -3.427000000
H     2.769000000     3.159000000    -3.082000000
H     2.313000000     4.598000000    -2.967000000
O    -2.461000000    -2.221000000    -4.245000000
H    -1.791000000    -2.116000000    -4.921000000
H    -2.339000000    -1.467000000    -3.669000000
O     2.166000000    -2.371000000    -5.909000000
H     2.813000000    -1.930000000    -5.358000000
H     2.462000000    -2.207000000    -6.804000000
O    -3.624000000     1.705000000    -4.263000000
H    -4.034000000     2.520000000    -3.972000000
H    -3.731000000     1.107000000    -3.524000000
O     2.836000000     1.554000000     1.104000000
H     3.206000000     2.402000000     1.348000000
H     1.935000000     1.584000000     1.426000000
O     0.508000000    -2.628000000     4.441000000
H     1.260000000    -2.121000000     4.749000000
H    -0.001000000    -2.009000000     3.918000000
O     2.405000000    -5.215000000    -5.876000000
H     2.497000000    -4.262000000    -5.858000000
H     3.038000000    -5.529000000    -5.231000000
O    -3.382000000     5.415000000     0.579000000
H    -2.559000000     5.082000000     0.222000000
H    -3.842000000     4.634000000     0.887000000
O    -5.288000000     2.948000000     4.992000000
H    -4.668000000     2.943000000     5.721000000
H    -5.097000000     2.143000000     4.510000000
O    -0.688000000     4.541000000    -0.067000000
H    -0.476000000     3.906000000     0.617000000
H     0.118000000     5.045000000    -0.184000000
O    -7.131000000    -0.252000000     3.912000000
H    -6.177000000    -0.178000000     3.923000000
H    -7.351000000    -0.368000000     2.987000000
O    -2.870000000    -0.372000000    -1.300000000
H    -1.938000000    -0.207000000    -1.156000000
H    -3.253000000     0.499000000    -1.406000000
O    -2.894000000     2.981000000     6.571000000
H    -2.315000000     3.674000000     6.888000000
H    -2.312000000     2.239000000     6.405000000
