144
-2813.49677
O    -1.295000000    -4.310000000    -4.668000000
H    -0.660000000    -3.638000000    -4.917000000
H    -1.903000000    -4.349000000    -5.406000000
O    -0.789000000     1.233000000     5.412000000
H    -1.143000000     1.993000000     4.951000000
H    -0.260000000     0.780000000     4.755000000
O     0.677000000    -0.027000000    -5.215000000
H     0.333000000     0.619000000    -4.598000000
H     1.022000000     0.494000000    -5.940000000
O    -2.505000000     0.303000000     2.901000000
H    -2.949000000     0.457000000     2.067000000
H    -2.229000000     1.173000000     3.189000000
O    -4.524000000    -2.510000000    -6.320000000
H    -3.832000000    -2.255000000    -5.710000000
H    -4.626000000    -3.452000000    -6.187000000
O    -2.536000000     3.529000000     0.515000000
H    -1.959000000     4.265000000     0.720000000
H    -2.654000000     3.575000000    -0.434000000
O     0.856000000     5.728000000     2.172000000
H     0.831000000     5.116000000     2.908000000
H    -0.055000000     5.802000000     1.890000000
O     2.334000000     5.821000000    -3.211000000
H     1.945000000     5.875000000    -2.338000000
H     3.203000000     6.211000000    -3.110000000
O    -3.719000000     0.978000000     0.758000000
H    -4.014000000     0.724000000    -0.116000000
H    -3.094000000     1.686000000     0.604000000
O    -5.818000000    -4.575000000    -1.702000000
H    -5.002000000    -4.332000000    -2.141000000
H    -6.506000000    -4.210000000    -2.257000000
O    -3.243000000     0.820000000     7.049000000
H    -2.380000000     0.632000000     6.682000000
H    -3.755000000     1.140000000     6.306000000
O    -6.233000000     1.165000000    -3.209000000
H    -6.201000000     0.490000000    -2.531000000
H    -6.744000000     0.771000000    -3.916000000
O     3.785000000     0.270000000    -5.557000000
H     3.391000000    -0.584000000    -5.735000000
H     3.144000000     0.718000000    -5.005000000
O     0.883000000    -2.905000000    -5.283000000
H     1.467000000    -2.734000000    -4.544000000
H     0.841000000    -2.072000000    -5.753000000
O     1.894000000    -0.637000000     6.793000000
H     1.235000000    -1.120000000     6.293000000
H     1.430000000     0.135000000     7.116000000
O    -0.455000000     3.088000000    -5.922000000
H     0.290000000     2.588000000    -6.258000000
H    -1.140000000     2.966000000    -6.579000000
O    -0.203000000    -4.412000000    -1.584000000
H     0.633000000    -3.946000000    -1.579000000
H    -0.524000000    -4.317000000    -2.481000000
O    -3.924000000    -0.110000000    -1.715000000
H    -4.085000000     0.148000000    -2.623000000
H    -3.537000000    -0.983000000    -1.779000000
O     1.601000000     6.151000000    -0.436000000
H     1.595000000     5.661000000     0.386000000
H     1.911000000     7.023000000    -0.192000000
O     5.780000000     4.247000000    -1.562000000
H     4.895000000     3.882000000    -1.533000000
H     6.087000000     4.057000000    -2.449000000
O     3.654000000     1.045000000     4.491000000
H     2.882000000     0.706000000     4.038000000
H     3.330000000     1.797000000     4.986000000
O     3.463000000    -1.654000000     4.696000000
H     3.648000000    -0.914000000     5.274000000
H     2.516000000    -1.618000000     4.557000000
O    -4.077000000    -4.768000000     3.792000000
H    -4.585000000    -4.148000000     4.315000000
H    -3.240000000    -4.329000000     3.646000000
O     0.217000000    -1.852000000     4.824000000
H     0.340000000    -1.098000000     4.248000000
H    -0.457000000    -2.376000000     4.391000000
O     2.880000000    -2.444000000    -3.473000000
H     2.523000000    -2.046000000    -2.679000000
H     3.828000000    -2.346000000    -3.385000000
O     2.720000000    -5.285000000    -2.828000000
H     2.706000000    -4.329000000    -2.885000000
H     3.631000000    -5.500000000    -2.631000000
O    -2.099000000     1.622000000    -7.611000000
H    -2.423000000     0.907000000    -7.063000000
H    -1.601000000     1.187000000    -8.303000000
O     5.393000000     3.148000000     3.090000000
H     4.798000000     3.576000000     2.474000000
H     4.863000000     2.464000000     3.498000000
O    -2.153000000    -1.237000000    -5.669000000
H    -2.600000000    -0.431000000    -5.412000000
H    -1.307000000    -1.195000000    -5.223000000
O     1.924000000     2.672000000    -3.738000000
H     2.025000000     2.558000000    -2.793000000
H     2.666000000     3.221000000    -3.993000000
O     0.595000000     4.019000000     4.161000000
H     1.070000000     3.949000000     4.989000000
H     0.967000000     3.328000000     3.613000000
O    -2.986000000     3.338000000    -2.345000000
H    -2.205000000     3.876000000    -2.479000000
H    -3.486000000     3.434000000    -3.156000000
O     3.145000000     5.759000000     4.041000000
H     3.394000000     4.913000000     3.667000000
H     3.295000000     5.659000000     4.981000000
O     3.122000000     3.847000000     1.790000000
H     2.476000000     3.256000000     2.176000000
H     2.641000000     4.660000000     1.634000000
O    -3.873000000    -2.157000000     1.742000000
H    -3.969000000    -1.337000000     1.258000000
H    -4.397000000    -2.789000000     1.250000000
O    -0.469000000     4.559000000    -2.990000000
H    -0.155000000     3.858000000    -3.562000000
H     0.186000000     5.251000000    -3.078000000
O    -1.484000000    -3.139000000     3.297000000
H    -1.424000000    -3.809000000     2.615000000
H    -2.086000000    -2.487000000     2.939000000
O    -1.874000000     2.963000000     3.341000000
H    -1.129000000     3.453000000     3.688000000
H    -2.083000000     3.399000000     2.514000000
O     5.584000000    -0.230000000     2.428000000
H     5.855000000     0.554000000     2.904000000
H     4.881000000    -0.603000000     2.960000000
O     2.827000000     2.949000000     6.227000000
H     3.417000000     2.717000000     6.945000000
H     2.126000000     3.449000000     6.645000000
O    -1.073000000    -5.164000000     1.363000000
H    -0.619000000    -5.013000000     0.534000000
H    -1.598000000    -5.949000000     1.208000000
O     3.325000000     2.855000000    -0.998000000
H     3.885000000     2.925000000    -0.224000000
H     2.539000000     2.408000000    -0.684000000
O     1.906000000    -1.993000000    -1.103000000
H     1.227000000    -1.633000000    -0.532000000
H     2.617000000    -2.231000000    -0.508000000
O    -0.611000000    -2.994000000     7.128000000
H    -0.358000000    -2.757000000     6.235000000
H    -1.559000000    -3.122000000     7.082000000
O     4.302000000    -3.725000000    -0.452000000
H     4.379000000    -3.434000000     0.456000000
H     5.205000000    -3.771000000    -0.766000000
O    -3.366000000     1.011000000    -4.482000000
H    -3.936000000     1.447000000    -3.849000000
H    -2.894000000     1.725000000    -4.910000000
O    -3.332000000    -4.159000000    -2.610000000
H    -2.688000000    -3.973000000    -3.294000000
H    -2.812000000    -4.491000000    -1.877000000
O    -1.722000000     6.159000000     1.685000000
H    -1.538000000     7.095000000     1.758000000
H    -2.672000000     6.109000000     1.580000000
