144
-2846.21174
O    -5.118000000     0.429000000    -2.293000000
H    -4.232000000     0.211000000    -2.003000000
H    -4.990000000     0.966000000    -3.075000000
O    -1.991000000    -4.853000000    -3.338000000
H    -2.130000000    -5.617000000    -3.897000000
H    -2.873000000    -4.544000000    -3.131000000
O    -2.641000000     1.089000000     7.441000000
H    -2.512000000     2.028000000     7.571000000
H    -2.260000000     0.912000000     6.581000000
O     1.055000000     3.634000000    -2.024000000
H     1.950000000     3.476000000    -1.725000000
H     1.102000000     3.546000000    -2.976000000
O     5.698000000     3.229000000    -3.227000000
H     4.839000000     2.997000000    -2.876000000
H     5.792000000     4.162000000    -3.033000000
O     4.820000000     1.690000000     0.339000000
H     4.555000000     1.570000000     1.251000000
H     5.299000000     0.891000000     0.121000000
O     0.323000000    -2.542000000     1.850000000
H     0.906000000    -3.179000000     1.436000000
H     0.412000000    -1.753000000     1.314000000
O    -3.580000000    -3.504000000     6.366000000
H    -3.294000000    -2.845000000     5.733000000
H    -3.226000000    -4.327000000     6.030000000
O    -4.520000000     5.040000000     2.401000000
H    -3.989000000     4.361000000     2.817000000
H    -5.264000000     5.156000000     2.991000000
O     0.219000000    -4.872000000    -2.019000000
H    -0.186000000    -4.834000000    -1.153000000
H    -0.510000000    -4.766000000    -2.630000000
O    -1.206000000    -4.590000000     0.490000000
H    -0.618000000    -4.119000000     1.080000000
H    -2.038000000    -4.122000000     0.557000000
O     1.404000000     4.511000000     1.213000000
H     1.098000000     3.960000000     0.492000000
H     1.857000000     3.906000000     1.801000000
O    -7.662000000    -0.857000000     1.708000000
H    -6.958000000    -1.008000000     1.076000000
H    -7.420000000    -0.041000000     2.145000000
O    -5.783000000    -0.784000000    -0.010000000
H    -5.735000000    -0.151000000    -0.726000000
H    -4.962000000    -0.666000000     0.469000000
O    -4.087000000    -4.582000000    -1.494000000
H    -3.795000000    -4.221000000    -0.657000000
H    -4.868000000    -4.075000000    -1.714000000
O    -2.125000000    -6.753000000    -0.481000000
H    -2.597000000    -6.054000000    -0.935000000
H    -1.559000000    -6.295000000     0.140000000
O     3.746000000     3.322000000    -1.222000000
H     4.037000000     4.089000000    -0.728000000
H     4.070000000     2.575000000    -0.718000000
O    -6.087000000    -0.732000000     5.194000000
H    -6.004000000    -1.291000000     5.967000000
H    -6.924000000    -0.283000000     5.312000000
O     1.480000000     0.245000000     4.539000000
H     1.808000000    -0.092000000     5.373000000
H     1.753000000    -0.406000000     3.893000000
O     5.219000000     1.891000000    -5.700000000
H     5.489000000     2.429000000    -4.956000000
H     5.857000000     2.091000000    -6.385000000
O     0.211000000    -1.308000000    -7.054000000
H     0.556000000    -0.416000000    -7.104000000
H     0.093000000    -1.466000000    -6.117000000
O     6.594000000    -0.496000000    -4.204000000
H     6.240000000    -1.359000000    -3.987000000
H     5.912000000    -0.082000000    -4.732000000
O     2.663000000    -2.506000000    -4.583000000
H     2.088000000    -1.814000000    -4.909000000
H     2.269000000    -3.317000000    -4.905000000
O     7.302000000     1.244000000    -2.289000000
H     6.846000000     0.617000000    -2.851000000
H     6.850000000     2.074000000    -2.442000000
O    -7.178000000     2.612000000     0.602000000
H    -7.166000000     2.321000000    -0.310000000
H    -7.061000000     1.809000000     1.111000000
O     2.900000000    -2.158000000     3.853000000
H     3.580000000    -1.599000000     3.479000000
H     2.600000000    -2.695000000     3.120000000
O    -0.253000000     3.799000000     4.804000000
H    -0.474000000     2.873000000     4.900000000
H     0.627000000     3.798000000     4.429000000
O    -5.960000000     0.891000000     2.653000000
H    -5.070000000     1.227000000     2.542000000
H    -5.897000000     0.285000000     3.391000000
O    -5.255000000     3.267000000     4.890000000
H    -5.290000000     4.223000000     4.865000000
H    -4.390000000     3.049000000     4.544000000
O     4.827000000    -4.036000000     1.543000000
H     5.202000000    -4.817000000     1.136000000
H     5.084000000    -3.318000000     0.965000000
O    -3.031000000     3.114000000     3.520000000
H    -2.146000000     3.440000000     3.685000000
H    -2.900000000     2.230000000     3.176000000
O    -4.216000000     3.001000000     0.130000000
H    -4.888000000     2.445000000     0.524000000
H    -4.327000000     3.851000000     0.557000000
O     5.901000000    -2.159000000    -0.758000000
H     5.530000000    -2.467000000    -1.585000000
H     6.756000000    -1.801000000    -0.998000000
O    -0.876000000    -1.794000000    -4.545000000
H    -1.317000000    -1.067000000    -4.106000000
H    -0.446000000    -2.275000000    -3.838000000
O     1.768000000     3.397000000    -4.606000000
H     2.539000000     3.868000000    -4.922000000
H     1.025000000     3.889000000    -4.956000000
O    -3.357000000    -1.188000000     4.555000000
H    -4.235000000    -0.943000000     4.848000000
H    -3.090000000    -0.474000000     3.976000000
O     5.026000000    -2.644000000    -3.362000000
H     4.122000000    -2.546000000    -3.662000000
H     5.165000000    -3.591000000    -3.329000000
O    -2.007000000     2.230000000    -1.455000000
H    -1.194000000     2.570000000    -1.081000000
H    -2.690000000     2.529000000    -0.855000000
O     1.684000000     0.269000000    -5.087000000
H     1.323000000     0.268000000    -4.200000000
H     1.961000000     1.174000000    -5.232000000
O    -2.231000000     0.586000000    -3.625000000
H    -1.973000000     1.325000000    -4.175000000
H    -2.088000000     0.892000000    -2.730000000
O     4.855000000    -0.586000000     2.887000000
H     5.794000000    -0.664000000     2.720000000
H     4.778000000     0.166000000     3.475000000
O     2.224000000     2.546000000     3.140000000
H     3.083000000     2.542000000     3.562000000
H     1.781000000     1.773000000     3.490000000
O    -1.026000000     1.269000000     4.822000000
H    -0.208000000     0.773000000     4.807000000
H    -1.512000000     0.954000000     4.060000000
O     1.929000000    -4.259000000     0.725000000
H     1.929000000    -4.759000000    -0.091000000
H     2.851000000    -4.207000000     0.974000000
O    -6.552000000    -3.198000000    -1.320000000
H    -6.135000000    -2.652000000    -0.654000000
H    -7.345000000    -3.528000000    -0.897000000
O    -5.806000000    -3.179000000     2.579000000
H    -6.402000000    -2.440000000     2.454000000
H    -5.812000000    -3.334000000     3.523000000
O    -3.561000000    -3.390000000     0.771000000
H    -4.121000000    -3.609000000     1.515000000
H    -3.651000000    -2.442000000     0.674000000
O    -0.952000000    -2.670000000     4.453000000
H    -1.584000000    -1.970000000     4.289000000
H    -0.728000000    -2.999000000     3.582000000
