144
-2795.33075
O    -0.516000000    -4.087000000    -0.193000000
H     0.349000000    -3.715000000    -0.369000000
H    -1.005000000    -3.949000000    -1.005000000
O     0.654000000    -3.308000000     3.967000000
H     0.431000000    -2.383000000     4.069000000
H     1.604000000    -3.314000000     3.848000000
O     4.373000000    -0.119000000    -1.466000000
H     5.050000000     0.292000000    -0.929000000
H     4.486000000    -1.058000000    -1.317000000
O    -3.821000000     1.627000000     3.225000000
H    -4.368000000     1.663000000     4.009000000
H    -3.066000000     1.099000000     3.482000000
O    -2.987000000    -1.142000000     5.491000000
H    -2.301000000    -0.736000000     4.961000000
H    -2.566000000    -1.322000000     6.331000000
O     1.797000000    -0.944000000     6.762000000
H     1.560000000    -0.020000000     6.838000000
H     1.640000000    -1.157000000     5.843000000
O    -3.497000000     3.139000000    -3.148000000
H    -3.926000000     2.651000000    -3.851000000
H    -2.563000000     2.968000000    -3.272000000
O     0.670000000     1.517000000     5.460000000
H     0.329000000     0.826000000     4.892000000
H    -0.102000000     2.027000000     5.706000000
O    -6.052000000     1.617000000     1.439000000
H    -5.302000000     1.247000000     1.904000000
H    -6.420000000     0.878000000     0.953000000
O     1.916000000     2.054000000     1.628000000
H     1.545000000     1.336000000     1.116000000
H     2.435000000     1.622000000     2.307000000
O    -1.017000000     3.393000000    -4.295000000
H    -0.954000000     3.897000000    -5.106000000
H    -0.151000000     3.473000000    -3.895000000
O    -4.932000000    -1.143000000    -0.829000000
H    -4.640000000    -0.864000000    -1.697000000
H    -5.683000000    -1.711000000    -0.999000000
O     5.105000000     1.569000000     1.885000000
H     5.909000000     1.340000000     2.351000000
H     4.401000000     1.275000000     2.463000000
O     2.742000000     0.116000000     3.450000000
H     3.086000000    -0.749000000     3.228000000
H     1.855000000    -0.053000000     3.768000000
O    -5.671000000    -0.608000000     4.073000000
H    -6.116000000    -1.274000000     3.549000000
H    -4.818000000    -0.502000000     3.653000000
O    -1.811000000    -2.113000000    -5.283000000
H    -2.427000000    -2.821000000    -5.472000000
H    -0.974000000    -2.556000000    -5.141000000
O     4.304000000    -1.866000000     1.999000000
H     4.248000000    -2.773000000     1.697000000
H     4.743000000    -1.403000000     1.285000000
O    -0.463000000     2.843000000    -7.424000000
H    -0.386000000     2.219000000    -6.701000000
H     0.199000000     2.561000000    -8.055000000
O    -3.781000000    -3.371000000     4.427000000
H    -3.866000000    -2.658000000     5.060000000
H    -3.249000000    -3.003000000     3.721000000
O     2.490000000    -5.413000000    -1.165000000
H     3.193000000    -5.721000000    -1.736000000
H     2.407000000    -4.481000000    -1.368000000
O     1.488000000    -3.182000000    -2.160000000
H     0.983000000    -3.185000000    -2.973000000
H     2.297000000    -2.720000000    -2.382000000
O     5.355000000     0.221000000    -4.058000000
H     4.999000000     0.086000000    -3.180000000
H     5.745000000    -0.622000000    -4.291000000
O     3.647000000    -2.750000000     4.949000000
H     3.665000000    -2.454000000     5.859000000
H     4.337000000    -2.246000000     4.519000000
O    -0.298000000    -4.534000000     6.106000000
H    -0.741000000    -5.256000000     5.659000000
H     0.122000000    -4.039000000     5.403000000
O     2.350000000    -5.664000000     3.293000000
H     2.182000000    -6.606000000     3.257000000
H     1.530000000    -5.287000000     3.610000000
O    -1.589000000     2.993000000     6.388000000
H    -2.454000000     3.403000000     6.396000000
H    -1.544000000     2.512000000     7.215000000
O     5.632000000    -0.858000000     4.236000000
H     6.374000000    -1.407000000     4.488000000
H     5.462000000    -1.090000000     3.323000000
O    -1.220000000     4.451000000     0.465000000
H    -0.298000000     4.579000000     0.239000000
H    -1.273000000     4.678000000     1.393000000
O    -2.043000000    -3.701000000    -2.552000000
H    -2.926000000    -3.391000000    -2.750000000
H    -1.515000000    -3.415000000    -3.297000000
O     5.202000000    -2.920000000    -1.713000000
H     5.948000000    -2.457000000    -2.094000000
H     5.502000000    -3.825000000    -1.626000000
O     1.803000000     5.960000000    -2.946000000
H     1.633000000     5.107000000    -3.346000000
H     2.156000000     6.492000000    -3.659000000
O     4.718000000     0.699000000     6.153000000
H     4.951000000    -0.030000000     5.577000000
H     3.952000000     1.096000000     5.739000000
O     4.404000000    -4.562000000     1.614000000
H     4.314000000    -5.270000000     0.975000000
H     3.620000000    -4.631000000     2.158000000
O     1.516000000     4.817000000     0.618000000
H     1.570000000     3.896000000     0.875000000
H     2.265000000     4.949000000     0.037000000
O    -3.916000000     4.654000000     2.391000000
H    -3.644000000     3.839000000     2.813000000
H    -4.115000000     4.402000000     1.489000000
O    -3.739000000     4.689000000    -0.694000000
H    -3.018000000     4.476000000    -0.102000000
H    -3.549000000     4.193000000    -1.491000000
O    -0.199000000    -6.230000000     1.530000000
H     0.423000000    -6.609000000     0.909000000
H    -0.491000000    -5.420000000     1.112000000
O    -1.821000000    -3.312000000     2.209000000
H    -1.294000000    -3.260000000     1.411000000
H    -1.180000000    -3.318000000     2.919000000
O     0.366000000    -3.530000000    -4.552000000
H     0.725000000    -4.342000000    -4.196000000
H     0.779000000    -3.442000000    -5.412000000
O     2.879000000     2.339000000    -1.210000000
H     3.515000000     1.624000000    -1.187000000
H     2.790000000     2.610000000    -0.297000000
O    -3.928000000    -0.738000000    -4.050000000
H    -4.049000000     0.147000000    -4.394000000
H    -3.146000000    -1.063000000    -4.496000000
O    -0.643000000    -0.012000000    -6.527000000
H    -1.122000000    -0.728000000    -6.111000000
H     0.218000000    -0.380000000    -6.722000000
O     4.484000000     0.995000000    -6.524000000
H     4.788000000     0.584000000    -5.714000000
H     4.025000000     0.296000000    -6.989000000
O    -1.487000000     3.435000000     3.613000000
H    -1.535000000     3.191000000     4.538000000
H    -1.767000000     2.649000000     3.144000000
O     1.590000000     3.323000000    -3.448000000
H     2.179000000     3.023000000    -4.140000000
H     2.060000000     3.133000000    -2.635000000
O    -3.629000000    -1.208000000     1.573000000
H    -3.571000000    -1.097000000     0.624000000
H    -2.806000000    -1.632000000     1.816000000
O     2.707000000     3.499000000     5.642000000
H     2.635000000     3.329000000     6.582000000
H     1.991000000     2.997000000     5.253000000
O    -1.305000000    -2.490000000     7.543000000
H    -0.411000000    -2.367000000     7.864000000
H    -1.292000000    -3.348000000     7.120000000
