144
-2803.09874
O    -1.551000000    -4.269000000    -2.613000000
H    -0.823000000    -3.722000000    -2.909000000
H    -1.207000000    -4.734000000    -1.850000000
O     0.767000000    -2.253000000     5.196000000
H     0.532000000    -1.705000000     4.447000000
H     1.475000000    -1.775000000     5.629000000
O    -2.981000000     1.580000000     5.308000000
H    -2.397000000     1.645000000     6.064000000
H    -2.400000000     1.639000000     4.550000000
O    -2.696000000    -1.666000000     4.953000000
H    -1.991000000    -1.028000000     5.059000000
H    -2.260000000    -2.516000000     5.008000000
O     1.326000000     3.169000000     3.368000000
H     1.110000000     4.101000000     3.329000000
H     0.484000000     2.724000000     3.270000000
O     0.201000000     2.923000000    -4.053000000
H    -0.506000000     2.346000000    -4.343000000
H     0.901000000     2.781000000    -4.690000000
O    -0.499000000     0.973000000     6.313000000
H    -0.454000000     1.000000000     5.357000000
H    -0.560000000     0.041000000     6.523000000
O    -3.899000000     0.942000000     0.883000000
H    -4.097000000     0.789000000     1.807000000
H    -4.233000000     0.164000000     0.435000000
O    -1.478000000     5.483000000     6.020000000
H    -1.102000000     5.306000000     5.158000000
H    -1.873000000     6.351000000     5.936000000
O     2.976000000     1.954000000    -0.525000000
H     2.982000000     1.880000000    -1.480000000
H     2.797000000     1.065000000    -0.217000000
O    -2.327000000    -1.724000000     0.233000000
H    -1.500000000    -1.288000000     0.029000000
H    -2.931000000    -1.421000000    -0.446000000
O    -1.805000000     1.618000000    -5.485000000
H    -1.278000000     0.828000000    -5.611000000
H    -2.526000000     1.526000000    -6.108000000
O     1.664000000    -0.394000000     8.392000000
H     0.800000000    -0.804000000     8.443000000
H     1.928000000    -0.506000000     7.479000000
O     3.044000000     2.088000000     5.290000000
H     2.194000000     2.353000000     4.937000000
H     3.496000000     2.913000000     5.469000000
O    -4.234000000    -0.184000000     3.547000000
H    -3.998000000     0.394000000     4.273000000
H    -3.531000000    -0.833000000     3.520000000
O     4.253000000    -0.113000000    -5.141000000
H     4.409000000    -1.054000000    -5.063000000
H     4.667000000     0.264000000    -4.364000000
O    -0.429000000     6.486000000     3.614000000
H     0.514000000     6.514000000     3.775000000
H    -0.595000000     7.229000000     3.034000000
O    -1.835000000    -3.162000000    -6.518000000
H    -1.173000000    -3.824000000    -6.715000000
H    -1.349000000    -2.454000000    -6.097000000
O    -4.079000000    -0.397000000    -1.617000000
H    -4.406000000    -1.277000000    -1.805000000
H    -3.919000000    -0.012000000    -2.479000000
O    -3.032000000    -5.408000000    -5.224000000
H    -2.590000000    -5.290000000    -4.383000000
H    -2.365000000    -5.198000000    -5.877000000
O    -1.277000000    -5.200000000     3.736000000
H    -0.634000000    -5.717000000     3.251000000
H    -1.307000000    -4.361000000     3.274000000
O     1.962000000    -4.549000000    -0.177000000
H     2.859000000    -4.330000000     0.074000000
H     1.834000000    -4.108000000    -1.017000000
O     5.686000000    -0.734000000    -2.055000000
H     6.523000000    -1.179000000    -2.183000000
H     5.901000000     0.198000000    -2.095000000
O     2.694000000    -0.609000000     5.780000000
H     2.987000000     0.226000000     5.415000000
H     3.431000000    -1.203000000     5.640000000
O    -0.936000000    -3.779000000     6.334000000
H    -1.098000000    -4.547000000     5.786000000
H    -0.416000000    -3.196000000     5.781000000
O    -3.677000000     1.415000000    -3.595000000
H    -2.975000000     1.534000000    -4.234000000
H    -3.655000000     2.211000000    -3.064000000
O    -5.190000000     2.272000000     6.932000000
H    -4.285000000     2.211000000     6.627000000
H    -5.387000000     3.209000000     6.914000000
O     3.637000000    -3.023000000     2.714000000
H     3.971000000    -2.617000000     1.914000000
H     3.394000000    -2.286000000     3.274000000
O     1.045000000     3.091000000     7.092000000
H     0.324000000     2.542000000     6.783000000
H     1.705000000     2.469000000     7.397000000
O     1.635000000     5.062000000    -2.576000000
H     1.198000000     4.376000000    -3.080000000
H     1.516000000     4.801000000    -1.662000000
O    -2.090000000     3.320000000     7.586000000
H    -1.976000000     4.071000000     7.004000000
H    -2.688000000     3.631000000     8.265000000
O     1.550000000    -4.154000000    -2.989000000
H     1.696000000    -4.980000000    -3.451000000
H     2.382000000    -3.686000000    -3.066000000
O     1.894000000     1.572000000    -5.880000000
H     2.617000000     0.954000000    -5.779000000
H     1.552000000     1.399000000    -6.757000000
O     0.899000000     3.800000000     0.035000000
H     1.469000000     3.040000000    -0.073000000
H     0.278000000     3.539000000     0.716000000
O    -4.636000000     3.736000000     3.869000000
H    -5.507000000     3.386000000     3.685000000
H    -4.221000000     3.070000000     4.417000000
O    -1.079000000     5.540000000    -0.630000000
H    -1.806000000     5.526000000    -0.007000000
H    -0.437000000     4.932000000    -0.262000000
O    -0.523000000    -5.773000000    -0.040000000
H     0.284000000    -5.259000000    -0.039000000
H    -0.363000000    -6.472000000     0.594000000
O    -1.295000000    -2.678000000     2.588000000
H    -1.095000000    -1.777000000     2.840000000
H    -1.694000000    -2.601000000     1.721000000
O    -3.022000000     3.591000000    -2.134000000
H    -2.213000000     3.932000000    -1.752000000
H    -3.212000000     4.185000000    -2.860000000
O     4.749000000    -1.139000000     0.705000000
H     5.013000000    -0.219000000     0.724000000
H     4.859000000    -1.402000000    -0.208000000
O    -5.185000000     5.575000000     0.517000000
H    -5.902000000     5.828000000    -0.063000000
H    -5.088000000     4.632000000     0.381000000
O     3.491000000    -5.160000000     4.592000000
H     2.635000000    -5.507000000     4.845000000
H     3.289000000    -4.409000000     4.034000000
O     0.004000000    -1.006000000    -6.365000000
H    -0.074000000    -0.640000000    -7.247000000
H     0.596000000    -1.752000000    -6.467000000
O    -4.840000000     3.111000000    -0.215000000
H    -4.508000000     2.315000000     0.201000000
H    -4.242000000     3.267000000    -0.946000000
O    -4.639000000    -2.895000000    -2.565000000
H    -4.921000000    -2.625000000    -3.439000000
H    -3.810000000    -3.352000000    -2.712000000
O     4.471000000    -3.050000000    -3.189000000
H     4.975000000    -2.385000000    -2.719000000
H     4.976000000    -3.214000000    -3.986000000
O    -1.151000000     4.129000000     1.925000000
H    -0.947000000     4.900000000     2.455000000
H    -1.290000000     3.429000000     2.563000000
O    -3.400000000    -2.225000000     7.702000000
H    -4.274000000    -2.281000000     7.317000000
H    -2.814000000    -2.543000000     7.015000000
