144
-2819.94803
O    -4.389000000    -1.521000000    -2.479000000
H    -4.846000000    -1.339000000    -1.658000000
H    -4.004000000    -2.388000000    -2.352000000
O     5.771000000    -0.709000000     2.447000000
H     5.111000000    -1.263000000     2.865000000
H     5.292000000    -0.239000000     1.764000000
O     3.718000000     1.988000000     3.034000000
H     3.367000000     1.108000000     3.170000000
H     4.112000000     1.957000000     2.163000000
O     0.302000000    -4.657000000    -1.658000000
H     0.420000000    -5.597000000    -1.522000000
H    -0.585000000    -4.479000000    -1.345000000
O     3.165000000    -3.149000000     6.835000000
H     3.087000000    -2.595000000     7.611000000
H     2.265000000    -3.405000000     6.632000000
O     1.011000000    -4.385000000     3.426000000
H     1.326000000    -3.542000000     3.100000000
H     1.092000000    -4.976000000     2.677000000
O    -3.849000000     3.303000000    -2.406000000
H    -3.499000000     3.246000000    -3.295000000
H    -4.116000000     2.408000000    -2.195000000
O     4.122000000    -2.164000000     4.174000000
H     3.880000000    -2.657000000     4.958000000
H     3.286000000    -1.895000000     3.793000000
O    -1.533000000    -5.807000000     1.057000000
H    -1.854000000    -5.103000000     1.620000000
H    -2.145000000    -6.528000000     1.204000000
O    -1.796000000     5.708000000    -1.530000000
H    -2.121000000     5.030000000    -0.938000000
H    -1.809000000     5.297000000    -2.394000000
O     2.806000000     5.059000000    -1.072000000
H     2.352000000     5.180000000    -0.238000000
H     2.668000000     5.882000000    -1.541000000
O    -1.917000000    -5.944000000    -2.966000000
H    -1.146000000    -5.855000000    -3.526000000
H    -2.618000000    -5.509000000    -3.451000000
O     3.199000000    -4.046000000    -1.433000000
H     3.516000000    -3.423000000    -0.779000000
H     2.246000000    -3.982000000    -1.383000000
O    -4.349000000    -5.079000000    -0.783000000
H    -4.329000000    -4.909000000    -1.725000000
H    -3.514000000    -4.740000000    -0.460000000
O     3.293000000     4.686000000     4.161000000
H     3.332000000     3.741000000     4.012000000
H     3.995000000     4.859000000     4.788000000
O    -2.435000000    -4.462000000    -5.577000000
H    -1.834000000    -3.717000000    -5.556000000
H    -2.635000000    -4.583000000    -6.505000000
O     0.802000000     3.848000000     5.611000000
H     1.688000000     4.121000000     5.847000000
H     0.899000000     2.941000000     5.322000000
O     2.030000000     3.768000000    -6.054000000
H     2.092000000     3.438000000    -5.157000000
H     1.145000000     3.535000000    -6.334000000
O     0.518000000     7.018000000    -0.565000000
H     0.873000000     6.434000000     0.105000000
H    -0.290000000     6.591000000    -0.851000000
O    -0.831000000     0.368000000    -5.818000000
H    -0.754000000     1.059000000    -5.160000000
H    -1.582000000    -0.153000000    -5.533000000
O    -1.234000000     3.226000000     3.327000000
H    -0.701000000     3.084000000     4.110000000
H    -1.991000000     2.653000000     3.446000000
O    -4.620000000     3.605000000     1.812000000
H    -3.722000000     3.823000000     1.564000000
H    -4.602000000     2.661000000     1.969000000
O     1.828000000     5.610000000     1.676000000
H     2.404000000     5.330000000     2.387000000
H     1.097000000     6.044000000     2.117000000
O    -3.866000000     0.897000000     2.018000000
H    -4.426000000     0.559000000     1.319000000
H    -3.282000000     0.168000000     2.230000000
O     0.474000000    -3.663000000     6.260000000
H     0.273000000    -4.532000000     6.608000000
H     0.451000000    -3.775000000     5.310000000
O     1.204000000    -6.198000000     1.134000000
H     1.687000000    -6.326000000     0.317000000
H     0.286000000    -6.170000000     0.867000000
O    -0.248000000     4.452000000    -3.929000000
H    -0.311000000     3.809000000    -4.635000000
H     0.589000000     4.261000000    -3.505000000
O     0.993000000     1.305000000     4.771000000
H     0.695000000     0.655000000     5.407000000
H     1.322000000     0.788000000     4.035000000
O    -3.269000000    -2.261000000     3.098000000
H    -2.790000000    -3.083000000     3.204000000
H    -3.139000000    -1.799000000     3.926000000
O     1.178000000    -5.078000000    -5.291000000
H     1.027000000    -4.910000000    -6.221000000
H     0.602000000    -4.460000000    -4.840000000
O    -2.623000000    -3.046000000     0.222000000
H    -2.195000000    -2.215000000     0.014000000
H    -3.099000000    -2.874000000     1.034000000
O     4.474000000     0.723000000     0.246000000
H     4.847000000     0.058000000    -0.332000000
H     3.637000000     0.950000000    -0.160000000
O     3.788000000     0.440000000     6.055000000
H     3.366000000     0.853000000     5.302000000
H     3.278000000    -0.355000000     6.209000000
O    -5.753000000     4.420000000    -0.504000000
H    -5.514000000     4.035000000     0.339000000
H    -4.964000000     4.334000000    -1.039000000
O     3.761000000    -3.526000000     1.287000000
H     3.086000000    -2.996000000     1.712000000
H     4.538000000    -3.409000000     1.834000000
O    -2.965000000    -0.789000000    -4.816000000
H    -3.210000000    -1.166000000    -3.971000000
H    -3.786000000    -0.748000000    -5.307000000
O    -3.203000000     2.681000000    -4.958000000
H    -3.377000000     3.481000000    -5.455000000
H    -3.573000000     1.980000000    -5.495000000
O     0.395000000    -6.308000000     5.289000000
H     0.568000000    -5.707000000     4.564000000
H     1.209000000    -6.800000000     5.392000000
O     3.603000000    -5.114000000     4.763000000
H     3.976000000    -5.381000000     3.923000000
H     2.850000000    -4.572000000     4.529000000
O    -0.399000000    -2.548000000    -5.664000000
H     0.320000000    -2.413000000    -6.281000000
H    -0.854000000    -1.707000000    -5.639000000
O     2.291000000     3.381000000    -3.363000000
H     2.414000000     2.486000000    -3.046000000
H     2.695000000     3.930000000    -2.691000000
O    -5.657000000     0.239000000    -0.042000000
H    -6.478000000     0.708000000    -0.190000000
H    -5.878000000    -0.682000000    -0.177000000
O    -0.704000000     3.327000000    -6.706000000
H    -1.347000000     2.705000000    -7.048000000
H    -0.838000000     4.120000000    -7.225000000
O    -4.187000000    -4.055000000    -3.434000000
H    -5.025000000    -4.388000000    -3.754000000
H    -3.631000000    -4.019000000    -4.213000000
O     2.597000000     1.000000000    -2.115000000
H     1.964000000     0.548000000    -1.558000000
H     2.893000000     0.331000000    -2.732000000
O     5.629000000     2.552000000     5.257000000
H     5.424000000     2.466000000     4.325000000
H     4.968000000     2.016000000     5.697000000
O    -2.074000000     4.266000000     1.146000000
H    -1.561000000     3.903000000     1.868000000
H    -1.984000000     5.214000000     1.241000000
O     0.690000000    -0.696000000     6.920000000
H     0.541000000    -0.659000000     7.865000000
H     0.641000000    -1.627000000     6.705000000
