144
-2799.84679
O    -4.117000000    -2.553000000     1.282000000
H    -4.307000000    -3.071000000     2.064000000
H    -4.215000000    -3.170000000     0.556000000
O     4.018000000    -0.262000000     3.476000000
H     3.124000000    -0.600000000     3.432000000
H     4.439000000    -0.593000000     2.682000000
O    -0.072000000     3.425000000     4.042000000
H    -0.043000000     2.471000000     4.124000000
H    -0.138000000     3.582000000     3.100000000
O    -0.345000000    -2.360000000     4.741000000
H     0.013000000    -1.811000000     4.044000000
H     0.415000000    -2.820000000     5.097000000
O     2.199000000     1.006000000     5.673000000
H     2.139000000     0.486000000     4.872000000
H     1.495000000     1.650000000     5.594000000
O     3.690000000    -3.418000000     4.762000000
H     3.001000000    -3.433000000     5.425000000
H     3.794000000    -4.334000000     4.503000000
O     1.908000000    -5.638000000    -2.225000000
H     1.557000000    -4.968000000    -1.638000000
H     1.370000000    -6.411000000    -2.055000000
O    -3.324000000     3.660000000     0.780000000
H    -4.186000000     3.810000000     1.166000000
H    -2.724000000     4.163000000     1.331000000
O    -1.301000000    -3.254000000    -6.368000000
H    -1.625000000    -4.154000000    -6.322000000
H    -1.135000000    -3.107000000    -7.299000000
O    -1.738000000    -5.176000000     1.003000000
H    -1.792000000    -4.263000000     0.721000000
H    -1.294000000    -5.139000000     1.851000000
O    -7.557000000     0.890000000    -1.119000000
H    -6.797000000     1.097000000    -0.575000000
H    -7.396000000    -0.002000000    -1.426000000
O     1.247000000     5.041000000    -0.848000000
H     1.676000000     4.219000000    -1.086000000
H     1.304000000     5.578000000    -1.638000000
O     6.004000000    -3.394000000     3.253000000
H     6.783000000    -3.079000000     3.712000000
H     5.271000000    -3.082000000     3.783000000
O    -4.443000000    -2.627000000    -2.063000000
H    -3.856000000    -2.720000000    -2.814000000
H    -4.496000000    -3.508000000    -1.692000000
O    -2.252000000     2.620000000     5.647000000
H    -1.395000000     2.853000000     5.293000000
H    -2.356000000     1.692000000     5.432000000
O     5.298000000    -0.986000000     1.121000000
H     5.289000000    -1.912000000     1.361000000
H     5.145000000    -0.981000000     0.176000000
O    -0.944000000     2.575000000    -6.350000000
H    -1.465000000     2.639000000    -5.549000000
H    -1.501000000     2.093000000    -6.960000000
O    -0.261000000    -5.221000000     3.453000000
H    -0.014000000    -4.299000000     3.375000000
H     0.567000000    -5.697000000     3.389000000
O    -1.035000000    -4.319000000    -3.404000000
H    -1.663000000    -3.928000000    -4.013000000
H    -1.578000000    -4.728000000    -2.731000000
O     1.863000000    -3.744000000    -4.004000000
H     1.988000000    -4.538000000    -3.485000000
H     0.963000000    -3.475000000    -3.817000000
O     1.217000000     1.670000000    -4.964000000
H     0.977000000     0.779000000    -5.218000000
H     0.708000000     2.231000000    -5.548000000
O    -2.841000000     1.126000000    -7.788000000
H    -3.233000000     0.698000000    -8.550000000
H    -3.389000000     0.853000000    -7.052000000
O    -4.235000000     0.070000000     2.483000000
H    -3.537000000     0.041000000     3.137000000
H    -4.094000000    -0.710000000     1.947000000
O    -4.888000000     1.260000000    -0.030000000
H    -5.048000000     0.702000000     0.732000000
H    -4.595000000     2.092000000     0.341000000
O     1.513000000    -3.897000000    -0.259000000
H     2.209000000    -3.521000000     0.279000000
H     0.703000000    -3.614000000     0.166000000
O     2.684000000     4.075000000     4.810000000
H     1.784000000     4.086000000     4.483000000
H     2.631000000     3.597000000     5.638000000
O     7.439000000     0.404000000     1.933000000
H     7.800000000     0.695000000     1.096000000
H     6.581000000     0.043000000     1.712000000
O    -2.853000000     2.840000000    -4.196000000
H    -3.419000000     2.127000000    -3.901000000
H    -2.403000000     3.132000000    -3.403000000
O    -2.259000000    -0.075000000     4.556000000
H    -1.437000000     0.262000000     4.199000000
H    -2.031000000    -0.933000000     4.912000000
O    -1.244000000    -2.657000000     0.679000000
H    -2.101000000    -2.495000000     1.073000000
H    -0.913000000    -1.787000000     0.458000000
O     5.339000000    -0.049000000     5.835000000
H     4.720000000    -0.399000000     6.476000000
H     4.863000000    -0.070000000     5.005000000
O     4.887000000    -0.547000000    -1.494000000
H     4.345000000     0.107000000    -1.934000000
H     4.566000000    -1.386000000    -1.823000000
O     0.419000000     3.656000000     1.162000000
H     0.901000000     4.159000000     0.506000000
H     0.536000000     2.744000000     0.898000000
O     5.029000000    -4.205000000     0.795000000
H     4.930000000    -5.154000000     0.882000000
H     5.366000000    -3.920000000     1.644000000
O     3.918000000    -3.134000000    -2.034000000
H     3.585000000    -3.558000000    -2.825000000
H     3.272000000    -3.344000000    -1.360000000
O     1.075000000    -6.445000000     0.892000000
H     1.365000000    -5.761000000     0.288000000
H     1.235000000    -6.078000000     1.762000000
O     1.812000000    -3.246000000     2.532000000
H     1.739000000    -2.318000000     2.753000000
H     2.449000000    -3.592000000     3.157000000
O     3.585000000     2.948000000    -6.391000000
H     2.720000000     2.629000000    -6.133000000
H     3.495000000     3.160000000    -7.320000000
O    -4.333000000     0.878000000    -3.223000000
H    -4.112000000     0.018000000    -3.581000000
H    -3.947000000     0.878000000    -2.347000000
O    -6.312000000     2.709000000    -2.874000000
H    -6.871000000     2.172000000    -2.312000000
H    -5.539000000     2.167000000    -3.031000000
O    -3.275000000    -2.985000000    -4.621000000
H    -4.001000000    -3.252000000    -5.186000000
H    -2.574000000    -2.747000000    -5.228000000
O     0.227000000    -0.872000000    -5.909000000
H     0.395000000    -0.926000000    -6.849000000
H    -0.262000000    -1.670000000    -5.707000000
O    -1.689000000     3.544000000    -1.842000000
H    -0.790000000     3.343000000    -1.584000000
H    -2.161000000     3.634000000    -1.014000000
O     1.459000000    -3.974000000     6.426000000
H     1.999000000    -3.639000000     7.142000000
H     1.042000000    -4.757000000     6.786000000
O     3.473000000     0.827000000    -3.290000000
H     2.801000000     0.995000000    -3.950000000
H     4.262000000     0.632000000    -3.796000000
O     2.286000000     2.474000000    -1.099000000
H     1.895000000     1.636000000    -0.852000000
H     3.005000000     2.239000000    -1.685000000
O     4.628000000     2.909000000     2.894000000
H     4.468000000     1.966000000     2.939000000
H     3.908000000     3.297000000     3.391000000
O     0.221000000    -0.836000000     7.695000000
H     0.269000000    -0.340000000     6.878000000
H    -0.077000000    -1.706000000     7.430000000
