144
-2815.93500
O     4.497000000     1.646000000     2.801000000
H     3.970000000     1.667000000     3.600000000
H     3.868000000     1.798000000     2.096000000
O     5.474000000    -1.028000000    -0.569000000
H     6.341000000    -0.940000000    -0.173000000
H     5.139000000    -0.133000000    -0.614000000
O     4.794000000    -3.549000000     0.523000000
H     4.557000000    -2.625000000     0.445000000
H     4.046000000    -3.951000000     0.966000000
O     2.823000000    -1.899000000     3.257000000
H     3.737000000    -1.650000000     3.392000000
H     2.626000000    -2.489000000     3.985000000
O     0.170000000     4.710000000    -1.591000000
H     0.097000000     4.415000000    -0.683000000
H    -0.392000000     4.111000000    -2.083000000
O     5.470000000    -1.481000000     4.065000000
H     5.958000000    -0.712000000     3.772000000
H     5.890000000    -1.733000000     4.887000000
O    -5.130000000    -0.537000000    -0.152000000
H    -4.355000000    -0.818000000     0.335000000
H    -5.681000000    -1.319000000    -0.195000000
O    -2.908000000    -5.208000000     1.713000000
H    -3.421000000    -4.652000000     1.127000000
H    -3.482000000    -5.359000000     2.464000000
O     3.740000000     2.860000000    -2.808000000
H     3.972000000     2.820000000    -3.736000000
H     3.701000000     3.796000000    -2.612000000
O     3.291000000     4.738000000     3.090000000
H     2.886000000     5.568000000     2.835000000
H     2.898000000     4.091000000     2.504000000
O     1.582000000    -3.014000000    -6.103000000
H     1.474000000    -2.705000000    -5.203000000
H     1.029000000    -2.432000000    -6.624000000
O    -0.051000000    -3.580000000     4.474000000
H    -0.865000000    -3.960000000     4.803000000
H    -0.264000000    -3.284000000     3.589000000
O     5.008000000     6.505000000     0.646000000
H     4.197000000     6.009000000     0.532000000
H     4.721000000     7.369000000     0.942000000
O    -4.462000000     0.998000000    -4.384000000
H    -4.406000000     1.404000000    -3.519000000
H    -5.056000000     1.564000000    -4.877000000
O    -0.617000000     1.287000000     5.860000000
H    -0.607000000     0.556000000     6.478000000
H     0.049000000     1.060000000     5.210000000
O    -4.756000000    -4.500000000    -4.780000000
H    -5.216000000    -5.175000000    -4.280000000
H    -4.901000000    -3.694000000    -4.284000000
O    -4.504000000     3.241000000     2.173000000
H    -5.249000000     2.649000000     2.075000000
H    -4.065000000     2.945000000     2.970000000
O    -1.545000000     3.500000000    -3.207000000
H    -1.343000000     2.805000000    -3.834000000
H    -1.705000000     4.273000000    -3.749000000
O    -2.050000000    -4.417000000    -4.258000000
H    -2.935000000    -4.515000000    -4.609000000
H    -1.798000000    -3.523000000    -4.487000000
O     2.349000000    -3.401000000     5.391000000
H     2.323000000    -3.167000000     6.318000000
H     1.434000000    -3.372000000     5.111000000
O    -0.288000000    -0.153000000    -3.523000000
H    -0.127000000     0.768000000    -3.729000000
H    -0.258000000    -0.193000000    -2.567000000
O    -6.273000000    -2.840000000     0.334000000
H    -5.549000000    -3.417000000     0.089000000
H    -6.814000000    -3.370000000     0.919000000
O    -4.090000000    -3.950000000    -0.569000000
H    -4.195000000    -3.379000000    -1.330000000
H    -3.895000000    -4.811000000    -0.940000000
O    -3.791000000     4.145000000    -1.715000000
H    -2.985000000     3.671000000    -1.919000000
H    -4.394000000     3.470000000    -1.405000000
O     4.361000000    -2.473000000    -2.784000000
H     5.219000000    -2.775000000    -3.081000000
H     4.547000000    -1.964000000    -1.994000000
O    -4.543000000    -2.242000000    -2.829000000
H    -3.830000000    -1.624000000    -2.988000000
H    -5.302000000    -1.689000000    -2.644000000
O    -2.888000000     6.658000000     3.285000000
H    -1.940000000     6.784000000     3.312000000
H    -3.016000000     5.920000000     2.689000000
O    -0.555000000     6.046000000     1.294000000
H    -0.153000000     5.201000000     1.095000000
H    -1.438000000     5.983000000     0.930000000
O     2.844000000    -4.434000000     2.298000000
H     1.983000000    -4.554000000     1.897000000
H     2.749000000    -3.649000000     2.838000000
O     1.409000000     7.045000000     3.162000000
H     0.721000000     7.373000000     3.741000000
H     0.940000000     6.565000000     2.480000000
O     1.970000000     0.689000000     4.037000000
H     1.598000000     1.214000000     3.329000000
H     2.190000000    -0.147000000     3.626000000
O    -5.477000000     1.726000000    -1.328000000
H    -6.119000000     1.941000000    -0.652000000
H    -5.162000000     0.854000000    -1.091000000
O     1.539000000    -2.705000000    -3.430000000
H     2.467000000    -2.874000000    -3.265000000
H     1.259000000    -2.164000000    -2.692000000
O    -0.226000000    -6.674000000    -4.277000000
H    -0.160000000    -6.617000000    -3.323000000
H    -0.879000000    -6.015000000    -4.512000000
O     4.094000000     3.343000000     5.416000000
H     3.737000000     3.953000000     4.769000000
H     4.433000000     3.905000000     6.113000000
O     3.754000000     0.752000000     6.382000000
H     4.080000000     1.631000000     6.187000000
H     3.162000000     0.550000000     5.657000000
O     0.104000000    -5.513000000     0.981000000
H    -0.595000000    -4.860000000     0.970000000
H     0.272000000    -5.699000000     0.057000000
O    -1.151000000     5.283000000     5.562000000
H    -1.830000000     5.699000000     5.031000000
H    -0.641000000     4.767000000     4.938000000
O     2.466000000     5.446000000     0.376000000
H     2.013000000     5.999000000    -0.260000000
H     1.954000000     4.637000000     0.398000000
O     0.508000000    -6.275000000    -1.691000000
H     0.702000000    -7.192000000    -1.497000000
H     1.287000000    -5.957000000    -2.148000000
O     6.275000000     4.550000000     2.600000000
H     6.585000000     3.879000000     1.992000000
H     5.328000000     4.418000000     2.640000000
O    -3.084000000     4.983000000     0.715000000
H    -3.385000000     4.229000000     1.222000000
H    -3.341000000     4.785000000    -0.185000000
O     2.457000000    -5.325000000    -3.037000000
H     3.315000000    -5.039000000    -3.351000000
H     1.957000000    -4.515000000    -2.935000000
O    -1.692000000    -1.720000000    -5.374000000
H    -1.015000000    -1.969000000    -6.003000000
H    -1.359000000    -0.919000000    -4.968000000
O    -3.058000000    -5.949000000    -2.222000000
H    -2.593000000    -5.292000000    -2.740000000
H    -3.120000000    -6.710000000    -2.800000000
O     0.581000000     6.476000000    -3.682000000
H    -0.115000000     6.187000000    -4.271000000
H     0.616000000     5.803000000    -3.002000000
O     4.093000000     1.535000000    -0.217000000
H     4.661000000     2.047000000     0.358000000
H     3.893000000     2.126000000    -0.943000000
O     0.233000000     3.383000000     3.882000000
H     0.679000000     2.762000000     4.458000000
H     0.790000000     3.433000000     3.106000000
