144
-2814.32047
O     5.002000000     2.177000000     2.509000000
H     5.126000000     2.632000000     3.342000000
H     4.052000000     2.141000000     2.394000000
O     3.745000000     0.844000000    -0.477000000
H     3.340000000     0.655000000     0.370000000
H     3.599000000     1.781000000    -0.608000000
O     2.893000000    -4.152000000     0.277000000
H     2.526000000    -3.939000000    -0.581000000
H     2.320000000    -4.838000000     0.619000000
O     1.667000000    -1.787000000     3.711000000
H     2.571000000    -1.971000000     3.967000000
H     1.307000000    -2.642000000     3.475000000
O    -0.734000000     6.597000000    -2.574000000
H    -0.268000000     6.172000000    -1.854000000
H    -0.951000000     5.883000000    -3.174000000
O    -4.352000000    -1.431000000     2.734000000
H    -4.169000000    -1.320000000     3.667000000
H    -3.779000000    -0.799000000     2.300000000
O    -0.061000000     2.424000000    -4.067000000
H    -0.666000000     3.084000000    -3.728000000
H    -0.284000000     2.348000000    -4.995000000
O    -2.819000000     1.564000000     3.290000000
H    -2.004000000     1.147000000     3.568000000
H    -2.678000000     2.497000000     3.451000000
O     3.983000000    -2.835000000     4.920000000
H     3.862000000    -3.316000000     5.738000000
H     4.787000000    -2.332000000     5.054000000
O    -3.537000000    -3.690000000     1.944000000
H    -3.950000000    -3.636000000     1.082000000
H    -3.687000000    -2.829000000     2.335000000
O    -5.503000000     0.473000000    -2.767000000
H    -6.243000000     1.076000000    -2.834000000
H    -4.908000000     0.746000000    -3.466000000
O    -2.642000000     0.196000000    -5.746000000
H    -1.937000000     0.751000000    -6.078000000
H    -3.220000000     0.797000000    -5.277000000
O     2.994000000     3.599000000     4.621000000
H     3.076000000     4.441000000     4.172000000
H     2.627000000     3.010000000     3.962000000
O     1.294000000    -3.380000000    -7.005000000
H     1.148000000    -2.941000000    -6.167000000
H     0.898000000    -2.797000000    -7.653000000
O     2.361000000     6.364000000    -1.334000000
H     3.077000000     6.984000000    -1.472000000
H     1.577000000     6.838000000    -1.610000000
O    -4.535000000     1.835000000    -4.843000000
H    -4.371000000     2.778000000    -4.849000000
H    -5.476000000     1.755000000    -4.999000000
O    -0.679000000    -0.312000000     3.226000000
H    -0.732000000     0.113000000     2.371000000
H     0.110000000    -0.851000000     3.178000000
O    -3.709000000     2.598000000     0.613000000
H    -4.656000000     2.480000000     0.679000000
H    -3.373000000     2.322000000     1.466000000
O     6.172000000    -0.225000000     1.840000000
H     6.633000000    -0.007000000     1.030000000
H     5.708000000     0.579000000     2.075000000
O    -1.542000000    -2.461000000    -4.659000000
H    -1.976000000    -1.626000000    -4.483000000
H    -0.613000000    -2.285000000    -4.507000000
O     0.711000000    -4.188000000     3.496000000
H     1.327000000    -4.625000000     4.085000000
H    -0.147000000    -4.339000000     3.892000000
O     1.101000000     0.464000000    -2.800000000
H     0.462000000     0.128000000    -2.171000000
H     0.666000000     1.214000000    -3.205000000
O    -4.189000000    -3.737000000    -0.533000000
H    -4.771000000    -3.039000000    -0.834000000
H    -3.855000000    -4.134000000    -1.337000000
O    -1.991000000     4.310000000    -4.087000000
H    -1.590000000     4.522000000    -4.930000000
H    -2.922000000     4.206000000    -4.284000000
O     3.201000000    -1.138000000    -2.401000000
H     3.737000000    -0.672000000    -1.759000000
H     2.372000000    -0.660000000    -2.414000000
O     3.025000000     6.554000000     3.890000000
H     3.788000000     7.128000000     3.968000000
H     3.017000000     6.291000000     2.970000000
O    -6.336000000    -2.106000000    -2.148000000
H    -7.236000000    -1.987000000    -1.846000000
H    -6.066000000    -1.237000000    -2.446000000
O    -0.195000000     5.785000000     0.126000000
H     0.149000000     4.970000000     0.492000000
H    -1.145000000     5.697000000     0.197000000
O     0.420000000    -5.998000000     1.371000000
H    -0.507000000    -5.934000000     1.144000000
H     0.546000000    -5.334000000     2.050000000
O     0.507000000     7.702000000     2.012000000
H    -0.263000000     7.409000000     2.499000000
H     0.652000000     7.018000000     1.358000000
O     1.514000000     0.823000000     4.640000000
H     1.721000000     1.176000000     3.775000000
H     1.513000000    -0.127000000     4.517000000
O    -5.078000000     4.122000000    -1.808000000
H    -5.936000000     3.711000000    -1.708000000
H    -4.491000000     3.584000000    -1.277000000
O    -2.189000000    -5.078000000    -5.407000000
H    -2.272000000    -5.337000000    -4.490000000
H    -2.156000000    -4.121000000    -5.384000000
O     5.821000000     3.764000000     0.043000000
H     4.910000000     3.925000000    -0.203000000
H     5.792000000     2.952000000     0.550000000
O     5.291000000    -2.672000000    -0.247000000
H     4.423000000    -3.076000000    -0.229000000
H     5.263000000    -2.013000000     0.447000000
O    -2.150000000    -5.721000000     0.840000000
H    -2.480000000    -4.885000000     1.171000000
H    -2.624000000    -5.857000000     0.020000000
O    -6.197000000     0.209000000    -0.167000000
H    -6.792000000    -0.537000000    -0.093000000
H    -5.986000000     0.256000000    -1.099000000
O     2.599000000     5.447000000     1.569000000
H     2.050000000     4.686000000     1.759000000
H     2.419000000     5.649000000     0.650000000
O    -0.836000000    -5.100000000    -2.069000000
H    -0.427000000    -5.961000000    -2.155000000
H    -0.106000000    -4.503000000    -1.906000000
O    -4.979000000    -2.561000000    -5.110000000
H    -5.193000000    -3.310000000    -4.553000000
H    -4.024000000    -2.568000000    -5.164000000
O     5.787000000     4.197000000     5.082000000
H     6.137000000     3.566000000     5.710000000
H     4.848000000     4.221000000     5.265000000
O    -2.874000000     5.329000000    -0.114000000
H    -3.201000000     4.577000000     0.380000000
H    -3.331000000     5.281000000    -0.954000000
O     2.154000000    -4.094000000    -2.480000000
H     2.370000000    -3.162000000    -2.441000000
H     2.806000000    -4.466000000    -3.074000000
O     1.264000000    -1.543000000    -4.767000000
H     2.154000000    -1.704000000    -5.082000000
H     1.340000000    -0.756000000    -4.227000000
O    -0.609000000     1.883000000     5.294000000
H     0.186000000     1.359000000     5.197000000
H    -0.390000000     2.726000000     4.898000000
O    -3.438000000    -5.372000000    -2.671000000
H    -3.642000000    -6.305000000    -2.607000000
H    -2.541000000    -5.300000000    -2.344000000
O     3.193000000     3.761000000    -1.331000000
H     2.583000000     4.491000000    -1.435000000
H     3.691000000     3.746000000    -2.149000000
O    -1.553000000     4.281000000     2.687000000
H    -1.442000000     5.222000000     2.823000000
H    -0.698000000     3.981000000     2.377000000
