144
-2838.47158
O    -3.293000000    -0.736000000    -3.941000000
H    -2.489000000    -0.595000000    -4.442000000
H    -3.964000000    -0.254000000    -4.425000000
O    -4.726000000     3.806000000     3.130000000
H    -4.276000000     3.451000000     3.896000000
H    -4.787000000     3.067000000     2.524000000
O    -0.201000000     6.750000000    -0.662000000
H    -0.032000000     6.144000000     0.060000000
H    -1.037000000     6.458000000    -1.028000000
O     5.099000000     5.341000000    -3.774000000
H     5.581000000     6.168000000    -3.776000000
H     5.042000000     5.099000000    -2.850000000
O     4.386000000     5.221000000     1.477000000
H     4.866000000     5.965000000     1.840000000
H     4.761000000     4.457000000     1.915000000
O    -0.575000000    -5.262000000     1.711000000
H    -1.413000000    -4.824000000     1.559000000
H    -0.670000000    -6.115000000     1.287000000
O    -2.805000000    -2.220000000     2.648000000
H    -1.847000000    -2.208000000     2.643000000
H    -3.035000000    -3.095000000     2.335000000
O     0.885000000    -6.128000000    -1.233000000
H     1.565000000    -5.880000000    -0.607000000
H     0.448000000    -5.304000000    -1.451000000
O     0.215000000    -5.722000000    -4.328000000
H     0.114000000    -6.159000000    -3.483000000
H    -0.246000000    -4.889000000    -4.224000000
O    -5.114000000    -5.560000000    -0.462000000
H    -4.479000000    -6.063000000    -0.973000000
H    -5.558000000    -6.213000000     0.078000000
O    -7.221000000    -2.020000000    -2.597000000
H    -6.324000000    -2.258000000    -2.831000000
H    -7.170000000    -1.772000000    -1.674000000
O    -4.509000000    -2.772000000    -2.724000000
H    -4.089000000    -2.114000000    -3.278000000
H    -3.932000000    -2.849000000    -1.964000000
O    -5.923000000    -5.009000000    -3.284000000
H    -5.363000000    -4.239000000    -3.185000000
H    -6.247000000    -5.184000000    -2.400000000
O    -2.917000000     5.766000000    -1.438000000
H    -3.179000000     4.919000000    -1.076000000
H    -3.624000000     6.361000000    -1.191000000
O    -0.984000000    -3.588000000    -2.722000000
H    -0.969000000    -2.977000000    -3.458000000
H    -1.504000000    -3.143000000    -2.052000000
O     1.511000000     5.404000000     0.924000000
H     2.271000000     5.727000000     0.439000000
H     1.881000000     5.016000000     1.718000000
O     7.275000000     0.605000000     1.240000000
H     8.095000000     0.233000000     0.913000000
H     6.846000000     0.960000000     0.461000000
O     1.413000000     0.728000000     4.481000000
H     1.191000000     0.224000000     5.264000000
H     1.088000000     0.197000000     3.754000000
O    -4.330000000     3.435000000    -0.015000000
H    -4.159000000     2.662000000    -0.554000000
H    -4.467000000     3.087000000     0.866000000
O     0.314000000    -1.469000000     3.187000000
H     1.012000000    -1.499000000     2.532000000
H     0.367000000    -2.315000000     3.632000000
O     4.742000000    -2.061000000     0.628000000
H     4.670000000    -2.006000000    -0.324000000
H     5.403000000    -1.408000000     0.857000000
O     5.409000000     0.760000000    -3.262000000
H     5.261000000     1.553000000    -3.777000000
H     4.713000000     0.163000000    -3.536000000
O     6.061000000     2.295000000    -0.731000000
H     5.840000000     3.213000000    -0.891000000
H     5.903000000     1.861000000    -1.569000000
O    -2.931000000    -5.824000000    -2.917000000
H    -3.015000000    -4.874000000    -2.989000000
H    -3.570000000    -6.170000000    -3.540000000
O     2.979000000    -2.086000000     2.672000000
H     3.378000000    -1.766000000     3.481000000
H     3.717000000    -2.220000000     2.078000000
O    -1.778000000     3.250000000     3.943000000
H    -1.631000000     2.367000000     3.604000000
H    -0.954000000     3.483000000     4.370000000
O    -6.213000000    -1.344000000    -0.070000000
H    -5.329000000    -1.018000000    -0.234000000
H    -6.397000000    -1.096000000     0.836000000
O     2.023000000    -4.913000000     2.111000000
H     1.155000000    -4.997000000     1.717000000
H     1.862000000    -4.500000000     2.960000000
O    -4.850000000     1.430000000     1.820000000
H    -5.710000000     1.019000000     1.729000000
H    -4.236000000     0.778000000     1.482000000
O    -4.854000000     1.320000000    -2.229000000
H    -4.356000000     0.530000000    -2.021000000
H    -4.561000000     1.564000000    -3.108000000
O     4.425000000    -2.431000000    -2.185000000
H     5.079000000    -2.891000000    -2.711000000
H     3.886000000    -1.965000000    -2.825000000
O    -2.609000000    -3.174000000    -5.873000000
H    -3.186000000    -2.598000000    -6.374000000
H    -1.942000000    -2.591000000    -5.512000000
O     4.017000000     2.916000000    -4.588000000
H     4.373000000     3.803000000    -4.538000000
H     3.069000000     3.039000000    -4.627000000
O    -7.624000000     0.294000000     2.148000000
H    -8.489000000     0.103000000     2.510000000
H    -7.034000000    -0.302000000     2.609000000
O    -0.802000000    -7.683000000     0.429000000
H    -0.513000000    -7.194000000    -0.341000000
H    -0.130000000    -8.353000000     0.553000000
O     1.162000000     0.647000000    -3.775000000
H     0.550000000     0.906000000    -3.086000000
H     1.220000000     1.414000000    -4.344000000
O     3.147000000    -0.993000000    -4.127000000
H     2.397000000    -0.399000000    -4.075000000
H     3.221000000    -1.203000000    -5.058000000
O     3.948000000     1.908000000     4.770000000
H     4.351000000     1.692000000     5.611000000
H     3.129000000     1.414000000     4.763000000
O    -0.391000000    -1.543000000    -5.179000000
H     0.089000000    -2.209000000    -5.673000000
H     0.266000000    -0.881000000    -4.968000000
O     5.443000000     2.723000000     2.691000000
H     5.710000000     2.071000000     2.043000000
H     5.178000000     2.209000000     3.454000000
O     0.519000000     3.272000000     5.452000000
H     0.572000000     2.317000000     5.464000000
H     0.859000000     3.542000000     6.305000000
O    -1.819000000     0.498000000     3.252000000
H    -2.388000000    -0.272000000     3.263000000
H    -0.992000000     0.179000000     2.891000000
O     4.180000000    -4.979000000     0.271000000
H     3.630000000    -4.834000000     1.040000000
H     4.374000000    -4.100000000    -0.055000000
O     5.639000000     4.994000000    -0.984000000
H     6.388000000     5.520000000    -0.704000000
H     5.025000000     5.044000000    -0.251000000
O    -7.264000000    -3.813000000     0.179000000
H    -6.799000000    -3.004000000    -0.037000000
H    -6.579000000    -4.481000000     0.214000000
O    -6.834000000     2.838000000    -1.425000000
H    -6.180000000     3.147000000    -0.798000000
H    -6.366000000     2.202000000    -1.965000000
O    -3.051000000    -4.338000000     0.886000000
H    -3.907000000    -4.647000000     0.591000000
H    -2.841000000    -3.614000000     0.295000000
O    -5.558000000    -1.339000000     2.908000000
H    -4.633000000    -1.471000000     2.699000000
H    -5.825000000    -2.152000000     3.337000000
