144
-2779.17472
O     4.745000000     2.527000000     1.373000000
H     3.825000000     2.654000000     1.606000000
H     4.820000000     2.886000000     0.489000000
O     4.336000000     0.336000000    -1.430000000
H     3.608000000    -0.009000000    -1.946000000
H     4.312000000     1.280000000    -1.584000000
O     4.803000000    -3.818000000    -0.376000000
H     4.708000000    -3.269000000    -1.154000000
H     4.325000000    -3.349000000     0.308000000
O     5.008000000    -0.121000000     1.176000000
H     4.804000000     0.114000000     0.271000000
H     4.938000000     0.702000000     1.659000000
O     1.015000000     8.056000000    -1.104000000
H     1.158000000     7.180000000    -1.462000000
H     0.228000000     7.968000000    -0.565000000
O     3.615000000     6.451000000     5.670000000
H     3.386000000     6.005000000     6.486000000
H     3.030000000     6.069000000     5.016000000
O     1.701000000    -6.943000000    -3.983000000
H     1.445000000    -6.225000000    -4.561000000
H     0.898000000    -7.450000000    -3.862000000
O    -5.466000000    -4.814000000    -3.955000000
H    -5.362000000    -4.447000000    -4.833000000
H    -5.062000000    -4.168000000    -3.376000000
O    -1.830000000    -2.747000000     3.133000000
H    -2.484000000    -2.904000000     3.814000000
H    -2.011000000    -1.859000000     2.827000000
O     3.355000000    -4.634000000     4.471000000
H     3.432000000    -5.585000000     4.546000000
H     2.751000000    -4.500000000     3.740000000
O    -0.367000000     5.575000000    -1.214000000
H     0.096000000     4.869000000    -0.763000000
H    -0.973000000     5.125000000    -1.803000000
O    -2.535000000    -0.435000000     2.001000000
H    -3.448000000    -0.641000000     1.800000000
H    -2.242000000     0.099000000     1.263000000
O     5.385000000    -0.322000000     5.211000000
H     4.994000000    -0.017000000     6.030000000
H     4.637000000    -0.531000000     4.652000000
O    -5.294000000    -0.934000000    -0.285000000
H    -6.077000000    -1.238000000     0.174000000
H    -5.564000000    -0.866000000    -1.200000000
O    -2.407000000    -4.985000000     1.142000000
H    -2.916000000    -4.583000000     0.438000000
H    -2.401000000    -4.329000000     1.839000000
O     2.144000000     5.820000000     2.103000000
H     1.249000000     6.140000000     1.989000000
H     2.066000000     4.867000000     2.059000000
O     0.036000000     0.178000000     3.906000000
H    -0.763000000     0.052000000     4.418000000
H    -0.223000000    -0.019000000     3.006000000
O    -2.728000000    -7.533000000     1.616000000
H    -2.749000000    -7.686000000     2.561000000
H    -2.548000000    -6.597000000     1.530000000
O    -4.103000000    -2.201000000    -4.348000000
H    -4.415000000    -1.985000000    -5.227000000
H    -3.328000000    -1.652000000    -4.227000000
O    -3.720000000     4.392000000     1.423000000
H    -4.589000000     4.774000000     1.303000000
H    -3.889000000     3.470000000     1.619000000
O     7.442000000     2.802000000     1.737000000
H     7.242000000     2.326000000     2.543000000
H     6.586000000     2.985000000     1.349000000
O    -1.765000000    -3.509000000    -6.180000000
H    -2.101000000    -3.070000000    -6.962000000
H    -1.890000000    -2.872000000    -5.476000000
O     2.610000000    -1.374000000     4.141000000
H     1.742000000    -0.995000000     4.002000000
H     2.585000000    -1.708000000     5.038000000
O     1.154000000     1.968000000    -2.852000000
H     0.849000000     2.467000000    -2.094000000
H     0.921000000     2.511000000    -3.605000000
O    -3.721000000    -4.031000000    -0.960000000
H    -3.545000000    -3.223000000    -1.443000000
H    -3.154000000    -4.683000000    -1.371000000
O     5.203000000    -2.065000000    -2.283000000
H     5.010000000    -1.137000000    -2.152000000
H     6.059000000    -2.074000000    -2.710000000
O    -2.088000000     4.575000000    -2.827000000
H    -1.866000000     5.021000000    -3.644000000
H    -3.021000000     4.377000000    -2.909000000
O    -3.451000000     0.797000000    -3.380000000
H    -4.272000000     0.307000000    -3.341000000
H    -3.375000000     1.065000000    -4.296000000
O    -1.126000000     4.940000000     2.272000000
H    -0.768000000     4.347000000     1.612000000
H    -2.073000000     4.808000000     2.225000000
O     4.020000000    -2.435000000     1.914000000
H     3.371000000    -2.155000000     2.560000000
H     4.487000000    -1.633000000     1.681000000
O    -0.681000000     8.300000000     1.344000000
H    -1.353000000     8.648000000     1.929000000
H    -1.003000000     7.433000000     1.098000000
O     1.144000000     2.587000000     4.262000000
H     1.406000000     2.726000000     3.352000000
H     0.903000000     1.662000000     4.302000000
O    -5.022000000     3.017000000    -2.659000000
H    -4.125000000     2.691000000    -2.579000000
H    -5.537000000     2.246000000    -2.895000000
O    -5.866000000    -4.376000000     1.539000000
H    -5.286000000    -4.407000000     0.779000000
H    -5.416000000    -4.896000000     2.206000000
O     2.059000000    -0.812000000    -2.694000000
H     1.563000000     0.003000000    -2.617000000
H     1.828000000    -1.307000000    -1.907000000
O     0.620000000    -5.029000000    -5.646000000
H     0.878000000    -4.129000000    -5.447000000
H    -0.336000000    -5.002000000    -5.678000000
O     7.033000000    -2.438000000     0.615000000
H     6.707000000    -3.250000000     0.228000000
H     6.281000000    -1.846000000     0.597000000
O     0.550000000    -4.608000000     3.603000000
H    -0.089000000    -3.941000000     3.351000000
H     0.507000000    -5.258000000     2.902000000
O    -4.642000000     1.683000000     1.128000000
H    -4.365000000     0.934000000     0.600000000
H    -5.595000000     1.694000000     1.046000000
O     2.706000000     5.443000000    -1.876000000
H     2.378000000     4.884000000    -1.172000000
H     3.039000000     4.830000000    -2.532000000
O     1.089000000    -6.348000000     0.514000000
H     1.767000000    -6.373000000    -0.161000000
H     0.287000000    -6.126000000     0.039000000
O     4.544000000     7.599000000     0.592000000
H     4.267000000     6.713000000     0.825000000
H     3.793000000     7.970000000     0.128000000
O    -2.725000000     6.431000000     0.061000000
H    -3.104000000     5.662000000     0.487000000
H    -2.116000000     6.071000000    -0.584000000
O     1.567000000    -2.460000000    -5.021000000
H     1.895000000    -1.926000000    -5.744000000
H     2.047000000    -2.147000000    -4.254000000
O    -1.637000000    -1.164000000    -4.251000000
H    -0.707000000    -1.117000000    -4.030000000
H    -2.020000000    -0.389000000    -3.842000000
O    -2.647000000    -6.178000000    -2.626000000
H    -3.038000000    -6.557000000    -3.413000000
H    -2.090000000    -6.874000000    -2.277000000
O     5.329000000     3.185000000    -1.423000000
H     5.385000000     4.101000000    -1.695000000
H     6.199000000     2.828000000    -1.603000000
O     0.207000000     5.083000000     4.651000000
H     0.549000000     4.195000000     4.752000000
H    -0.202000000     5.086000000     3.786000000
