144
-2831.06043
O     2.379000000    -5.814000000    -2.050000000
H     3.091000000    -6.163000000    -1.514000000
H     2.111000000    -6.550000000    -2.600000000
O     1.652000000     6.104000000     1.846000000
H     2.462000000     5.838000000     2.282000000
H     1.855000000     6.052000000     0.912000000
O     0.332000000    -0.675000000    -3.904000000
H     0.446000000     0.064000000    -3.306000000
H    -0.571000000    -0.598000000    -4.211000000
O    -6.322000000    -0.179000000    -0.035000000
H    -6.630000000     0.682000000    -0.319000000
H    -5.371000000    -0.140000000    -0.144000000
O    -6.356000000     0.060000000     2.798000000
H    -5.465000000     0.301000000     2.545000000
H    -6.904000000     0.384000000     2.083000000
O    -0.331000000    -1.431000000     3.413000000
H    -1.220000000    -1.784000000     3.458000000
H     0.125000000    -2.008000000     2.801000000
O    -6.833000000    -2.126000000    -2.368000000
H    -6.626000000    -1.408000000    -1.769000000
H    -7.562000000    -1.796000000    -2.893000000
O    -3.654000000     4.396000000     1.427000000
H    -3.395000000     3.844000000     0.689000000
H    -3.139000000     4.068000000     2.164000000
O    -1.528000000     4.682000000    -4.458000000
H    -2.132000000     4.775000000    -3.721000000
H    -1.145000000     5.553000000    -4.566000000
O     6.078000000    -2.652000000     3.750000000
H     5.199000000    -2.274000000     3.729000000
H     6.413000000    -2.531000000     2.861000000
O    -7.402000000     2.349000000    -0.056000000
H    -8.225000000     2.058000000     0.336000000
H    -7.071000000     3.013000000     0.549000000
O     2.961000000    -0.992000000    -2.992000000
H     2.700000000    -1.334000000    -2.137000000
H     2.183000000    -1.096000000    -3.540000000
O     3.674000000     2.208000000    -2.221000000
H     3.495000000     2.538000000    -1.340000000
H     4.604000000     1.985000000    -2.209000000
O    -0.586000000     5.909000000     3.249000000
H    -0.894000000     6.813000000     3.321000000
H     0.236000000     5.974000000     2.763000000
O    -3.319000000    -3.124000000    -2.516000000
H    -3.342000000    -2.168000000    -2.487000000
H    -2.859000000    -3.328000000    -3.330000000
O     5.710000000    -3.626000000    -2.817000000
H     4.962000000    -3.498000000    -3.400000000
H     6.474000000    -3.577000000    -3.392000000
O    -2.278000000     3.816000000     3.773000000
H    -2.901000000     4.212000000     4.383000000
H    -1.547000000     4.433000000     3.743000000
O    -0.676000000    -3.396000000    -3.664000000
H    -0.698000000    -3.937000000    -2.875000000
H     0.068000000    -2.808000000    -3.531000000
O     3.403000000     1.430000000     2.994000000
H     3.243000000     0.812000000     3.707000000
H     3.465000000     2.283000000     3.425000000
O     3.403000000    -1.714000000     4.099000000
H     2.857000000    -2.396000000     3.706000000
H     2.999000000    -1.545000000     4.950000000
O     2.141000000    -3.751000000    -3.992000000
H     2.942000000    -3.509000000    -4.457000000
H     2.429000000    -4.384000000    -3.333000000
O    -6.368000000     3.803000000     2.107000000
H    -5.419000000     3.844000000     1.990000000
H    -6.487000000     3.623000000     3.040000000
O     1.632000000    -3.700000000     2.563000000
H     1.189000000    -4.462000000     2.935000000
H     2.403000000    -4.061000000     2.126000000
O    -3.244000000     4.416000000    -2.144000000
H    -4.194000000     4.465000000    -2.040000000
H    -3.011000000     3.549000000    -1.812000000
O     3.842000000     2.866000000     0.600000000
H     3.852000000     3.760000000     0.943000000
H     3.754000000     2.313000000     1.376000000
O     6.126000000     0.681000000     2.836000000
H     5.247000000     0.955000000     2.576000000
H     6.437000000     0.148000000     2.104000000
O    -3.697000000     0.484000000     2.581000000
H    -3.242000000     0.312000000     1.757000000
H    -3.479000000    -0.264000000     3.136000000
O     6.065000000     2.440000000    -1.020000000
H     5.415000000     2.739000000    -0.385000000
H     6.788000000     3.062000000    -0.934000000
O     1.663000000     6.069000000    -0.902000000
H     1.029000000     5.354000000    -0.957000000
H     1.663000000     6.458000000    -1.776000000
O    -5.435000000     1.860000000    -2.162000000
H    -6.081000000     2.429000000    -1.743000000
H    -4.871000000     1.570000000    -1.446000000
O     3.471000000    -5.208000000     1.055000000
H     4.022000000    -4.652000000     0.504000000
H     3.999000000    -5.992000000     1.208000000
O     5.590000000    -3.966000000    -0.162000000
H     6.110000000    -4.744000000     0.038000000
H     5.430000000    -4.020000000    -1.104000000
O    -1.835000000     7.281000000    -1.669000000
H    -1.587000000     6.500000000    -1.176000000
H    -1.630000000     8.010000000    -1.083000000
O     3.178000000     1.870000000    -4.772000000
H     3.154000000     1.966000000    -3.820000000
H     4.065000000     1.562000000    -4.959000000
O    -0.853000000     4.891000000    -0.289000000
H    -1.054000000     5.037000000     0.635000000
H    -1.529000000     4.284000000    -0.588000000
O    -5.798000000     5.096000000    -2.048000000
H    -6.751000000     5.047000000    -1.972000000
H    -5.595000000     6.023000000    -1.925000000
O     1.061000000     1.622000000    -2.516000000
H     0.541000000     1.743000000    -1.722000000
H     1.934000000     1.935000000    -2.281000000
O     1.463000000     3.298000000     5.162000000
H     1.253000000     3.942000000     4.486000000
H     1.146000000     2.467000000     4.807000000
O    -0.661000000    -4.851000000    -0.892000000
H    -0.797000000    -5.250000000    -0.032000000
H     0.290000000    -4.795000000    -0.983000000
O     6.817000000     0.049000000    -1.523000000
H     6.309000000    -0.244000000    -2.279000000
H     6.628000000     0.985000000    -1.456000000
O    -4.856000000    -3.623000000     2.260000000
H    -5.635000000    -3.104000000     2.458000000
H    -4.755000000    -3.553000000     1.311000000
O    -0.243000000     1.201000000     3.503000000
H    -0.038000000     1.366000000     2.582000000
H    -0.361000000     0.253000000     3.555000000
O     5.228000000     0.035000000    -3.881000000
H     5.284000000    -0.793000000    -4.359000000
H     4.349000000     0.033000000    -3.502000000
O    -3.358000000     2.051000000    -4.033000000
H    -2.745000000     2.732000000    -3.756000000
H    -4.044000000     2.061000000    -3.366000000
O     6.426000000    -1.624000000     0.797000000
H     6.784000000    -1.024000000     0.142000000
H     6.085000000    -2.359000000     0.287000000
O    -4.086000000     6.955000000     0.534000000
H    -3.959000000     6.991000000    -0.414000000
H    -3.783000000     6.082000000     0.784000000
O    -2.842000000    -0.919000000    -4.378000000
H    -2.468000000    -1.125000000    -5.235000000
H    -2.927000000     0.035000000    -4.377000000
O    -4.430000000    -4.114000000    -0.353000000
H    -3.873000000    -3.658000000    -0.983000000
H    -4.170000000    -5.033000000    -0.424000000
