144
-2830.07948
O     4.503000000     0.312000000    -1.981000000
H     3.582000000     0.286000000    -1.718000000
H     4.657000000     1.224000000    -2.224000000
O    -0.167000000     1.058000000    -4.506000000
H    -1.072000000     1.109000000    -4.199000000
H    -0.192000000     1.429000000    -5.388000000
O     0.990000000    -5.039000000     1.571000000
H     1.164000000    -5.604000000     2.325000000
H     0.501000000    -4.300000000     1.933000000
O    -3.581000000     5.233000000    -0.263000000
H    -3.005000000     4.521000000     0.014000000
H    -3.534000000     5.870000000     0.451000000
O    -1.370000000     6.786000000     3.449000000
H    -0.589000000     6.553000000     2.946000000
H    -1.256000000     6.340000000     4.288000000
O    -5.069000000    -0.051000000     1.803000000
H    -4.439000000    -0.311000000     2.475000000
H    -4.682000000    -0.355000000     0.982000000
O    -3.893000000     2.575000000     2.274000000
H    -4.207000000     1.776000000     1.851000000
H    -3.282000000     2.956000000     1.643000000
O     4.497000000    -3.382000000     0.297000000
H     4.407000000    -4.321000000     0.138000000
H     4.986000000    -3.057000000    -0.459000000
O    -3.426000000    -4.033000000    -0.360000000
H    -4.127000000    -4.685000000    -0.325000000
H    -2.811000000    -4.377000000    -1.008000000
O    -5.294000000    -3.333000000    -3.696000000
H    -4.548000000    -2.892000000    -4.103000000
H    -4.955000000    -4.191000000    -3.441000000
O     3.170000000    -5.769000000     0.018000000
H     2.404000000    -5.435000000     0.484000000
H     2.808000000    -6.352000000    -0.651000000
O     2.646000000     4.497000000     0.980000000
H     1.729000000     4.258000000     1.114000000
H     2.955000000     4.758000000     1.847000000
O    -3.090000000    -1.756000000    -4.657000000
H    -2.544000000    -2.430000000    -5.061000000
H    -2.817000000    -0.941000000    -5.080000000
O    -1.369000000    -3.309000000    -5.856000000
H    -0.749000000    -2.980000000    -6.507000000
H    -0.820000000    -3.722000000    -5.190000000
O     1.440000000    -1.174000000    -5.049000000
H     1.370000000    -2.105000000    -4.836000000
H     0.715000000    -0.765000000    -4.576000000
O     0.057000000    -2.697000000     2.884000000
H     0.419000000    -1.863000000     2.585000000
H    -0.812000000    -2.475000000     3.218000000
O     1.334000000     1.459000000     4.746000000
H     0.665000000     2.050000000     4.400000000
H     1.840000000     1.194000000     3.977000000
O    -3.558000000     6.879000000     1.815000000
H    -4.300000000     6.754000000     2.406000000
H    -2.789000000     6.696000000     2.354000000
O     4.304000000    -2.910000000    -6.075000000
H     3.976000000    -3.110000000    -5.199000000
H     4.545000000    -3.762000000    -6.441000000
O    -2.851000000     1.123000000    -4.162000000
H    -3.402000000     1.768000000    -3.719000000
H    -3.139000000     0.281000000    -3.810000000
O     4.224000000    -6.812000000     2.508000000
H     4.749000000    -6.061000000     2.787000000
H     3.978000000    -6.610000000     1.605000000
O     1.253000000     5.561000000     4.033000000
H     1.076000000     6.460000000     3.756000000
H     1.293000000     5.608000000     4.988000000
O     0.468000000     7.271000000    -2.362000000
H    -0.288000000     7.638000000    -1.904000000
H     0.367000000     6.323000000    -2.270000000
O    -5.411000000     2.635000000    -0.349000000
H    -4.604000000     3.103000000    -0.138000000
H    -6.104000000     3.282000000    -0.220000000
O    -1.825000000    -6.112000000     3.248000000
H    -2.165000000    -5.217000000     3.256000000
H    -0.895000000    -6.018000000     3.454000000
O     3.670000000     0.683000000     3.258000000
H     4.526000000     0.966000000     2.938000000
H     3.681000000    -0.269000000     3.163000000
O     2.881000000    -0.100000000     6.439000000
H     2.465000000     0.445000000     5.771000000
H     2.290000000    -0.847000000     6.541000000
O    -4.401000000    -1.432000000    -0.529000000
H    -4.875000000    -1.555000000    -1.351000000
H    -3.883000000    -2.231000000    -0.430000000
O     2.366000000     7.592000000     0.728000000
H     2.856000000     6.789000000     0.555000000
H     1.475000000     7.294000000     0.913000000
O     6.181000000    -1.539000000     4.374000000
H     5.848000000    -1.505000000     5.271000000
H     5.467000000    -1.926000000     3.868000000
O    -0.121000000     4.663000000    -1.968000000
H     0.725000000     4.495000000    -2.383000000
H    -0.046000000     4.264000000    -1.101000000
O    -1.858000000     7.587000000    -0.921000000
H    -2.392000000     6.825000000    -0.697000000
H    -2.411000000     8.101000000    -1.511000000
O    -2.928000000    -3.376000000     2.767000000
H    -3.040000000    -3.074000000     1.865000000
H    -3.300000000    -2.676000000     3.303000000
O    -4.502000000     2.697000000    -2.796000000
H    -4.721000000     3.616000000    -2.947000000
H    -4.766000000     2.533000000    -1.891000000
O    -0.029000000     6.310000000     1.194000000
H    -0.596000000     6.816000000     0.612000000
H    -0.472000000     5.466000000     1.284000000
O     0.114000000    -4.437000000    -4.113000000
H     0.907000000    -4.107000000    -3.690000000
H     0.396000000    -5.234000000    -4.562000000
O    -3.925000000     4.319000000     4.436000000
H    -4.524000000     5.035000000     4.225000000
H    -3.923000000     3.769000000     3.652000000
O     3.792000000    -2.181000000     2.736000000
H     3.202000000    -2.870000000     3.042000000
H     4.151000000    -2.519000000     1.916000000
O     3.000000000    -3.636000000    -3.559000000
H     3.403000000    -4.488000000    -3.727000000
H     3.476000000    -3.290000000    -2.804000000
O    -2.139000000     5.856000000    -3.805000000
H    -1.675000000     5.212000000    -3.270000000
H    -1.457000000     6.258000000    -4.343000000
O    -2.291000000    -4.918000000    -2.810000000
H    -2.793000000    -5.247000000    -3.556000000
H    -1.383000000    -4.918000000    -3.114000000
O     5.453000000    -2.207000000    -2.284000000
H     6.210000000    -1.957000000    -2.814000000
H     5.092000000    -1.376000000    -1.976000000
O     5.124000000     3.598000000     0.415000000
H     5.295000000     3.151000000     1.245000000
H     4.219000000     3.902000000     0.490000000
O    -4.629000000     5.519000000    -2.686000000
H    -4.147000000     5.533000000    -1.859000000
H    -3.998000000     5.827000000    -3.336000000
O     2.626000000     4.442000000    -2.097000000
H     2.651000000     4.460000000    -1.140000000
H     3.290000000     3.797000000    -2.342000000
O    -3.399000000     1.255000000     5.211000000
H    -4.095000000     1.653000000     5.734000000
H    -3.266000000     1.865000000     4.485000000
O     1.597000000     0.875000000    -2.317000000
H     0.887000000     0.856000000    -2.958000000
H     1.161000000     0.748000000    -1.474000000
O    -0.493000000     3.368000000     3.594000000
H    -0.751000000     3.688000000     2.730000000
H     0.127000000     4.022000000     3.917000000
