144
-2817.06880
O    -3.458000000     4.790000000    -2.023000000
H    -2.634000000     4.568000000    -2.457000000
H    -3.195000000     5.130000000    -1.168000000
O     1.504000000    -2.919000000     3.792000000
H     1.899000000    -2.919000000     2.920000000
H     0.739000000    -2.349000000     3.708000000
O     1.006000000    -6.695000000    -4.417000000
H     0.973000000    -5.745000000    -4.307000000
H     0.091000000    -6.973000000    -4.373000000
O     2.485000000     6.819000000     3.987000000
H     2.804000000     6.145000000     4.587000000
H     1.544000000     6.654000000     3.921000000
O     0.322000000    -3.885000000    -4.356000000
H     0.216000000    -2.984000000    -4.664000000
H    -0.257000000    -3.948000000    -3.597000000
O     6.544000000    -3.279000000    -2.243000000
H     5.690000000    -3.381000000    -2.661000000
H     6.414000000    -3.600000000    -1.350000000
O     4.115000000    -2.708000000    -3.253000000
H     4.119000000    -1.763000000    -3.102000000
H     3.612000000    -2.819000000    -4.060000000
O    -4.820000000     2.510000000     2.569000000
H    -5.438000000     3.142000000     2.202000000
H    -4.024000000     2.626000000     2.050000000
O     0.924000000     5.089000000     5.895000000
H     0.266000000     4.851000000     5.242000000
H     0.439000000     5.582000000     6.557000000
O    -1.842000000    -4.384000000    -2.652000000
H    -2.624000000    -4.452000000    -3.199000000
H    -2.174000000    -4.401000000    -1.755000000
O     4.506000000     1.229000000    -0.497000000
H     5.217000000     1.701000000    -0.062000000
H     3.719000000     1.731000000    -0.282000000
O    -0.827000000    -1.527000000     2.896000000
H    -1.122000000    -2.437000000     2.877000000
H    -1.199000000    -1.138000000     2.104000000
O     5.373000000    -1.691000000     1.357000000
H     6.253000000    -1.461000000     1.655000000
H     5.017000000    -0.874000000     1.008000000
O     3.063000000    -0.386000000    -6.294000000
H     2.944000000    -0.011000000    -5.422000000
H     2.983000000    -1.330000000    -6.163000000
O    -0.242000000    -1.178000000    -5.056000000
H    -0.971000000    -1.024000000    -4.455000000
H     0.259000000    -0.363000000    -5.039000000
O     4.761000000    -2.248000000     3.896000000
H     5.525000000    -2.228000000     4.472000000
H     5.111000000    -2.052000000     3.027000000
O     1.130000000     2.056000000    -4.919000000
H     0.520000000     1.970000000    -5.651000000
H     0.661000000     1.687000000    -4.171000000
O     1.065000000     7.603000000     0.567000000
H     1.233000000     6.743000000     0.183000000
H     1.787000000     7.737000000     1.181000000
O    -4.748000000    -0.190000000    -1.517000000
H    -4.932000000    -0.955000000    -0.971000000
H    -5.205000000     0.530000000    -1.083000000
O    -4.092000000    -1.255000000     3.137000000
H    -3.592000000    -0.441000000     3.071000000
H    -4.328000000    -1.316000000     4.063000000
O     4.699000000     0.031000000    -2.859000000
H     4.616000000     0.224000000    -1.925000000
H     5.451000000     0.550000000    -3.145000000
O    -2.433000000     0.066000000    -3.818000000
H    -3.032000000    -0.028000000    -3.078000000
H    -3.004000000     0.112000000    -4.585000000
O    -3.335000000     6.386000000     2.768000000
H    -3.840000000     6.655000000     2.001000000
H    -3.341000000     5.430000000     2.736000000
O     0.263000000    -1.955000000    -7.677000000
H     0.127000000    -1.755000000    -6.751000000
H    -0.608000000    -1.883000000    -8.068000000
O     1.704000000     1.007000000     5.158000000
H     1.564000000     0.123000000     5.497000000
H     2.305000000     0.888000000     4.422000000
O    -3.045000000     0.830000000     4.704000000
H    -2.298000000     1.428000000     4.697000000
H    -3.750000000     1.321000000     4.281000000
O    -4.142000000     2.735000000    -0.537000000
H    -3.858000000     3.333000000    -1.228000000
H    -3.456000000     2.793000000     0.127000000
O     6.304000000     2.536000000     1.369000000
H     7.151000000     2.110000000     1.500000000
H     5.855000000     2.439000000     2.208000000
O    -1.086000000     4.175000000    -3.105000000
H    -0.578000000     3.441000000    -2.760000000
H    -1.324000000     3.906000000    -3.992000000
O    -0.259000000     5.354000000     3.254000000
H    -1.068000000     5.832000000     3.071000000
H    -0.320000000     4.565000000     2.715000000
O     3.611000000    -5.783000000     0.919000000
H     3.381000000    -6.710000000     0.982000000
H     3.063000000    -5.448000000     0.210000000
O     3.290000000    -5.017000000    -1.808000000
H     3.396000000    -4.563000000    -2.643000000
H     3.815000000    -4.508000000    -1.190000000
O    -0.746000000     2.396000000     5.005000000
H    -0.655000000     2.407000000     5.958000000
H     0.024000000     1.920000000     4.696000000
O    -4.526000000    -2.033000000     0.567000000
H    -5.047000000    -2.792000000     0.829000000
H    -4.366000000    -1.560000000     1.383000000
O     3.670000000     5.315000000     1.751000000
H     2.937000000     5.186000000     1.150000000
H     3.272000000     5.687000000     2.538000000
O    -6.967000000     2.749000000    -1.137000000
H    -7.145000000     3.452000000    -1.762000000
H    -6.119000000     2.976000000    -0.756000000
O    -4.620000000     4.233000000     5.955000000
H    -3.807000000     4.083000000     5.474000000
H    -4.597000000     3.595000000     6.669000000
O     3.613000000     0.407000000     3.255000000
H     4.486000000     0.710000000     3.504000000
H     3.717000000    -0.535000000     3.117000000
O    -2.682000000     3.872000000     3.847000000
H    -2.526000000     3.465000000     2.995000000
H    -2.036000000     3.469000000     4.427000000
O    -0.875000000    -5.207000000     0.159000000
H    -1.402000000    -5.887000000    -0.261000000
H    -0.165000000    -5.685000000     0.587000000
O    -5.020000000    -2.789000000    -2.751000000
H    -4.644000000    -3.190000000    -3.535000000
H    -4.304000000    -2.271000000    -2.381000000
O    -6.210000000     4.920000000     1.350000000
H    -7.016000000     4.920000000     0.835000000
H    -6.086000000     5.836000000     1.601000000
O     3.124000000    -3.030000000    -5.611000000
H     3.589000000    -3.218000000    -6.427000000
H     2.294000000    -3.499000000    -5.695000000
O    -2.106000000     6.352000000    -0.057000000
H    -1.620000000     6.719000000    -0.795000000
H    -1.439000000     5.927000000     0.482000000
O    -2.265000000    -3.686000000     1.960000000
H    -1.683000000    -4.370000000     1.628000000
H    -2.644000000    -3.292000000     1.174000000
O     2.020000000    -7.365000000    -1.923000000
H     1.514000000    -7.267000000    -2.730000000
H     2.415000000    -6.504000000    -1.783000000
O    -0.238000000     1.217000000    -2.802000000
H    -1.048000000     0.862000000    -3.171000000
H    -0.147000000     0.776000000    -1.957000000
O     1.460000000     4.924000000     0.076000000
H     0.953000000     4.280000000     0.572000000
H     1.660000000     4.486000000    -0.751000000
