144
-2808.29591
O    -2.125000000     1.207000000    -3.329000000
H    -2.677000000     1.523000000    -2.614000000
H    -1.456000000     1.885000000    -3.433000000
O    -0.938000000     5.499000000     0.944000000
H    -1.657000000     6.099000000     1.139000000
H    -1.243000000     4.997000000     0.188000000
O     0.507000000     5.878000000    -2.909000000
H     0.944000000     6.620000000    -3.327000000
H     0.851000000     5.869000000    -2.016000000
O     3.564000000     4.126000000     0.187000000
H     3.616000000     3.516000000     0.922000000
H     2.685000000     4.500000000     0.247000000
O    -6.225000000     2.635000000    -3.738000000
H    -6.951000000     3.249000000    -3.620000000
H    -6.622000000     1.872000000    -4.156000000
O    -1.719000000     4.031000000    -1.152000000
H    -1.107000000     3.875000000    -1.871000000
H    -2.172000000     3.196000000    -1.038000000
O     0.020000000    -5.841000000     1.895000000
H    -0.104000000    -5.582000000     0.982000000
H     0.548000000    -5.139000000     2.274000000
O    -2.918000000    -3.838000000     4.236000000
H    -2.517000000    -3.769000000     3.370000000
H    -3.427000000    -4.648000000     4.201000000
O    -0.432000000    -5.579000000    -0.908000000
H    -1.097000000    -6.248000000    -1.070000000
H    -0.400000000    -5.072000000    -1.720000000
O     6.440000000     4.541000000     3.335000000
H     5.768000000     3.916000000     3.065000000
H     6.036000000     5.399000000     3.204000000
O    -3.372000000    -5.957000000     1.413000000
H    -2.805000000    -5.218000000     1.633000000
H    -3.730000000    -5.737000000     0.553000000
O    -4.472000000    -5.143000000    -1.209000000
H    -4.087000000    -4.415000000    -1.696000000
H    -4.662000000    -5.803000000    -1.876000000
O    -6.566000000    -3.250000000    -2.282000000
H    -6.572000000    -3.445000000    -1.345000000
H    -5.668000000    -2.971000000    -2.463000000
O    -3.857000000    -2.949000000    -2.869000000
H    -3.133000000    -2.831000000    -3.484000000
H    -3.616000000    -2.417000000    -2.110000000
O    -3.457000000     3.777000000    -4.417000000
H    -3.404000000     3.463000000    -3.514000000
H    -3.937000000     3.091000000    -4.881000000
O     1.665000000     6.394000000     1.130000000
H     0.743000000     6.195000000     0.971000000
H     1.673000000     6.831000000     1.981000000
O    -5.072000000    -0.878000000    -4.951000000
H    -4.572000000    -0.213000000    -5.424000000
H    -4.895000000    -0.699000000    -4.027000000
O     5.947000000     0.372000000     2.939000000
H     5.399000000    -0.246000000     2.454000000
H     6.841000000     0.157000000     2.674000000
O    -8.075000000    -1.595000000     2.161000000
H    -7.298000000    -2.091000000     1.903000000
H    -8.773000000    -1.933000000     1.600000000
O     0.137000000     1.095000000     4.882000000
H    -0.720000000     1.467000000     5.088000000
H    -0.052000000     0.202000000     4.592000000
O    -4.519000000     5.093000000    -0.175000000
H    -4.143000000     4.278000000    -0.506000000
H    -5.465000000     4.956000000    -0.218000000
O     1.252000000    -3.450000000     2.815000000
H     1.942000000    -3.210000000     3.434000000
H     0.640000000    -2.715000000     2.842000000
O     5.154000000    -1.783000000     1.372000000
H     5.508000000    -1.436000000     0.553000000
H     4.756000000    -2.618000000     1.126000000
O     6.074000000     1.098000000    -2.765000000
H     5.655000000     1.464000000    -3.544000000
H     7.011000000     1.149000000    -2.952000000
O     6.259000000     2.472000000    -0.446000000
H     6.136000000     2.000000000    -1.270000000
H     5.409000000     2.877000000    -0.273000000
O     3.590000000    -2.416000000     3.897000000
H     3.750000000    -1.728000000     4.544000000
H     3.698000000    -1.979000000     3.052000000
O    -5.803000000    -2.486000000     0.925000000
H    -4.950000000    -2.144000000     0.659000000
H    -5.703000000    -3.437000000     0.886000000
O     3.391000000    -4.472000000    -2.240000000
H     3.592000000    -5.104000000    -2.930000000
H     3.865000000    -3.681000000    -2.494000000
O    -5.280000000     1.367000000     1.846000000
H    -4.446000000     0.978000000     2.109000000
H    -5.563000000     0.844000000     1.096000000
O     3.170000000    -0.005000000     5.639000000
H     3.261000000     0.738000000     6.236000000
H     2.237000000    -0.218000000     5.662000000
O     0.688000000    -3.625000000    -4.715000000
H     0.371000000    -4.468000000    -4.391000000
H     1.625000000    -3.759000000    -4.857000000
O    -3.962000000     2.588000000    -1.504000000
H    -3.992000000     1.693000000    -1.165000000
H    -4.845000000     2.747000000    -1.837000000
O     5.528000000    -0.932000000    -1.224000000
H     4.939000000    -1.318000000    -1.873000000
H     5.906000000    -0.172000000    -1.666000000
O     2.996000000     5.521000000     4.503000000
H     3.460000000     5.597000000     5.337000000
H     3.424000000     4.791000000     4.057000000
O     1.760000000     1.056000000    -3.023000000
H     1.602000000     1.237000000    -2.096000000
H     1.326000000     1.774000000    -3.484000000
O    -0.306000000     3.126000000    -3.576000000
H    -0.362000000     3.032000000    -4.527000000
H     0.148000000     3.957000000    -3.443000000
O     3.648000000    -1.785000000    -3.249000000
H     3.595000000    -0.837000000    -3.369000000
H     2.736000000    -2.069000000    -3.176000000
O     1.907000000     2.872000000     3.662000000
H     1.060000000     3.295000000     3.518000000
H     1.692000000     2.047000000     4.097000000
O    -1.385000000    -2.286000000    -3.623000000
H    -0.679000000    -2.896000000    -3.832000000
H    -1.000000000    -1.419000000    -3.752000000
O     4.392000000     2.882000000     2.849000000
H     4.719000000     1.995000000     3.001000000
H     3.530000000     2.894000000     3.264000000
O    -0.599000000     4.158000000     3.340000000
H    -0.935000000     4.119000000     2.445000000
H    -1.380000000     4.109000000     3.891000000
O    -0.129000000    -1.120000000     2.776000000
H    -1.023000000    -0.781000000     2.812000000
H     0.271000000    -0.663000000     2.035000000
O    -6.446000000    -0.401000000    -0.656000000
H    -6.486000000    -0.962000000     0.119000000
H    -5.514000000    -0.216000000    -0.770000000
O     3.992000000    -4.213000000     0.979000000
H     4.094000000    -4.909000000     0.330000000
H     3.047000000    -4.157000000     1.124000000
O    -2.501000000     0.060000000     3.384000000
H    -2.360000000     0.921000000     3.778000000
H    -3.013000000    -0.420000000     4.035000000
O    -7.591000000    -0.753000000    -2.878000000
H    -7.312000000    -1.602000000    -3.221000000
H    -7.247000000    -0.731000000    -1.985000000
O    -1.987000000    -3.392000000     1.527000000
H    -1.215000000    -2.827000000     1.542000000
H    -2.576000000    -2.978000000     0.896000000
O    -8.345000000     1.790000000    -1.725000000
H    -8.025000000     0.958000000    -2.074000000
H    -8.833000000     2.182000000    -2.449000000
