144
-2825.15039
O     5.239000000    -3.209000000    -0.493000000
H     5.006000000    -3.140000000     0.433000000
H     4.400000000    -3.281000000    -0.947000000
O    -4.198000000     1.078000000    -2.421000000
H    -3.518000000     1.487000000    -2.957000000
H    -3.856000000     1.120000000    -1.528000000
O     0.577000000    -4.464000000     4.879000000
H     1.294000000    -4.857000000     4.381000000
H    -0.105000000    -4.301000000     4.227000000
O    -0.691000000    -2.658000000    -4.945000000
H     0.255000000    -2.574000000    -5.065000000
H    -0.952000000    -1.842000000    -4.519000000
O     4.746000000    -2.584000000    -4.148000000
H     5.205000000    -1.994000000    -3.550000000
H     4.398000000    -2.009000000    -4.830000000
O    -7.898000000     1.127000000     0.915000000
H    -8.191000000     2.036000000     0.849000000
H    -6.946000000     1.176000000     0.833000000
O    -2.879000000    -1.692000000     5.863000000
H    -3.578000000    -1.127000000     6.192000000
H    -3.328000000    -2.332000000     5.312000000
O    -1.424000000     3.359000000     4.608000000
H    -1.121000000     3.667000000     3.753000000
H    -0.651000000     2.958000000     5.006000000
O    -1.491000000    -4.549000000    -1.834000000
H    -1.775000000    -5.308000000    -1.325000000
H    -1.464000000    -4.863000000    -2.738000000
O     4.915000000     0.502000000     0.242000000
H     4.701000000    -0.155000000     0.905000000
H     5.837000000     0.706000000     0.395000000
O    -3.818000000     5.923000000    -1.763000000
H    -3.303000000     5.431000000    -2.403000000
H    -4.113000000     5.263000000    -1.136000000
O    -1.749000000    -4.688000000     2.915000000
H    -2.562000000    -4.330000000     2.560000000
H    -1.355000000    -5.161000000     2.182000000
O     4.325000000    -3.499000000     2.194000000
H     4.794000000    -3.402000000     3.022000000
H     3.882000000    -2.659000000     2.069000000
O     3.618000000     4.087000000    -3.779000000
H     2.811000000     4.428000000    -3.393000000
H     4.306000000     4.659000000    -3.440000000
O     4.157000000     2.896000000    -0.727000000
H     4.202000000     2.026000000    -0.330000000
H     4.964000000     2.969000000    -1.237000000
O    -1.001000000     0.608000000    -6.228000000
H    -0.384000000     0.006000000    -5.811000000
H    -1.150000000     1.289000000    -5.573000000
O     2.637000000    -5.396000000     3.064000000
H     3.179000000    -4.640000000     2.840000000
H     2.720000000    -5.981000000     2.311000000
O     1.792000000     5.236000000    -2.237000000
H     2.627000000     5.553000000    -1.894000000
H     1.156000000     5.447000000    -1.554000000
O    -2.532000000     2.543000000    -4.353000000
H    -1.798000000     3.141000000    -4.211000000
H    -3.277000000     3.117000000    -4.531000000
O     1.288000000     3.429000000    -5.428000000
H     1.795000000     3.681000000    -4.657000000
H     1.920000000     2.987000000    -5.996000000
O     4.248000000    -0.685000000    -6.187000000
H     3.409000000    -0.944000000    -6.568000000
H     4.047000000     0.102000000    -5.680000000
O    -1.670000000    -1.843000000    -2.156000000
H    -1.405000000    -2.754000000    -2.032000000
H    -1.312000000    -1.383000000    -1.397000000
O     5.570000000    -0.732000000    -2.101000000
H     5.825000000    -1.579000000    -1.736000000
H     5.329000000    -0.205000000    -1.339000000
O    -3.859000000    -1.422000000    -4.011000000
H    -3.174000000    -1.710000000    -3.408000000
H    -4.335000000    -0.746000000    -3.528000000
O    -5.279000000     6.832000000     0.334000000
H    -4.910000000     6.246000000     0.994000000
H    -4.898000000     6.533000000    -0.492000000
O    -1.818000000     7.326000000     0.360000000
H    -1.694000000     7.689000000     1.237000000
H    -1.838000000     8.091000000    -0.215000000
O    -5.925000000     0.121000000     3.207000000
H    -5.594000000     0.878000000     3.691000000
H    -5.741000000     0.324000000     2.290000000
O    -5.321000000     0.273000000     0.711000000
H    -4.546000000     0.693000000     0.338000000
H    -5.702000000    -0.217000000    -0.019000000
O    -0.797000000     4.723000000    -3.838000000
H    -0.235000000     4.349000000    -4.517000000
H    -0.221000000     4.823000000    -3.080000000
O    -0.047000000     4.389000000     2.155000000
H     0.381000000     5.215000000     1.930000000
H    -0.631000000     4.214000000     1.416000000
O     3.365000000    -6.902000000     0.760000000
H     2.898000000    -7.710000000     0.550000000
H     4.284000000    -7.166000000     0.821000000
O     3.408000000    -4.728000000    -3.259000000
H     4.001000000    -4.072000000    -3.626000000
H     3.855000000    -5.562000000    -3.402000000
O     1.757000000    -0.394000000     3.794000000
H     1.204000000    -0.317000000     4.571000000
H     1.147000000    -0.325000000     3.059000000
O     1.617000000    -5.640000000    -4.914000000
H     2.219000000    -5.200000000    -4.313000000
H     1.822000000    -5.268000000    -5.772000000
O     2.044000000     2.540000000     2.071000000
H     1.285000000     3.113000000     1.964000000
H     2.134000000     2.101000000     1.225000000
O    -7.005000000     1.850000000    -3.052000000
H    -7.521000000     2.440000000    -3.601000000
H    -6.136000000     1.848000000    -3.454000000
O    -6.576000000    -0.604000000    -1.545000000
H    -7.504000000    -0.389000000    -1.450000000
H    -6.233000000     0.072000000    -2.130000000
O     4.240000000    -0.471000000     2.557000000
H     4.686000000     0.266000000     2.973000000
H     3.387000000    -0.510000000     2.989000000
O    -3.848000000     4.976000000     1.804000000
H    -3.216000000     4.447000000     1.317000000
H    -3.542000000     4.942000000     2.710000000
O    -0.791000000    -0.252000000     4.780000000
H    -1.364000000     0.410000000     4.394000000
H    -1.377000000    -0.802000000     5.301000000
O    -0.821000000    -6.620000000     1.259000000
H    -0.898000000    -7.507000000     1.609000000
H     0.039000000    -6.603000000     0.837000000
O     3.870000000     1.114000000    -4.038000000
H     3.841000000     2.034000000    -3.777000000
H     4.475000000     0.708000000    -3.417000000
O    -5.167000000     3.700000000    -0.718000000
H    -4.940000000     2.805000000    -0.970000000
H    -4.970000000     3.743000000     0.217000000
O    -3.942000000    -3.167000000     1.315000000
H    -4.332000000    -3.798000000     0.710000000
H    -3.374000000    -2.628000000     0.764000000
O     0.997000000    -5.757000000    -0.698000000
H     1.701000000    -5.753000000    -0.049000000
H     1.192000000    -5.012000000    -1.267000000
O     0.797000000    -0.356000000    -4.102000000
H     1.606000000     0.156000000    -4.083000000
H     0.430000000    -0.257000000    -3.224000000
O    -0.691000000     5.478000000    -0.991000000
H    -1.137000000     4.708000000    -0.639000000
H    -1.235000000     6.216000000    -0.716000000
O    -4.805000000    -2.244000000     3.731000000
H    -5.144000000    -1.384000000     3.481000000
H    -4.561000000    -2.655000000     2.902000000
