144
-2829.08455
O     2.288000000    -6.026000000    -1.591000000
H     2.848000000    -5.403000000    -1.128000000
H     1.823000000    -6.492000000    -0.896000000
O     0.893000000    -5.846000000     2.589000000
H     1.161000000    -5.981000000     1.680000000
H     0.961000000    -6.712000000     2.990000000
O     4.259000000     2.004000000     0.930000000
H     4.514000000     1.797000000     1.829000000
H     3.888000000     2.884000000     0.982000000
O     3.187000000     7.216000000     1.850000000
H     2.395000000     7.046000000     2.360000000
H     3.347000000     8.153000000     1.961000000
O    -3.426000000     0.569000000    -4.741000000
H    -3.955000000    -0.193000000    -4.509000000
H    -3.657000000     0.753000000    -5.652000000
O    -0.547000000     1.360000000     4.277000000
H    -0.388000000     0.485000000     4.632000000
H    -1.232000000     1.232000000     3.622000000
O    -3.313000000     4.693000000    -1.811000000
H    -3.109000000     4.249000000    -0.989000000
H    -4.213000000     5.000000000    -1.701000000
O    -6.125000000     2.488000000     1.126000000
H    -5.426000000     2.108000000     1.658000000
H    -6.684000000     1.745000000     0.899000000
O    -3.145000000     6.271000000     3.039000000
H    -3.198000000     7.069000000     2.512000000
H    -3.818000000     6.382000000     3.710000000
O    -1.714000000    -7.252000000    -1.496000000
H    -1.943000000    -8.133000000    -1.792000000
H    -2.542000000    -6.772000000    -1.512000000
O    -2.497000000    -1.704000000     3.764000000
H    -2.567000000    -0.852000000     3.335000000
H    -1.570000000    -1.785000000     3.988000000
O    -0.796000000    -6.627000000    -3.960000000
H    -1.503000000    -7.100000000    -4.399000000
H    -0.995000000    -6.710000000    -3.028000000
O    -3.403000000    -3.484000000    -0.797000000
H    -3.732000000    -3.695000000     0.077000000
H    -2.455000000    -3.415000000    -0.686000000
O     1.460000000    -3.522000000    -6.396000000
H     1.038000000    -2.699000000    -6.149000000
H     1.502000000    -4.024000000    -5.583000000
O     4.356000000    -0.087000000    -0.904000000
H     5.175000000    -0.549000000    -0.725000000
H     4.281000000     0.550000000    -0.193000000
O    -0.741000000     0.317000000    -4.731000000
H    -0.333000000     1.148000000    -4.489000000
H    -1.679000000     0.507000000    -4.751000000
O    -0.667000000     5.851000000     2.137000000
H    -0.335000000     5.035000000     1.763000000
H    -1.523000000     5.618000000     2.498000000
O    -3.997000000     3.389000000    -4.435000000
H    -4.006000000     2.441000000    -4.305000000
H    -3.715000000     3.744000000    -3.592000000
O    -2.506000000    -4.034000000    -4.871000000
H    -1.682000000    -3.550000000    -4.806000000
H    -3.153000000    -3.461000000    -4.461000000
O     0.177000000    -1.743000000     3.679000000
H     0.556000000    -2.535000000     4.058000000
H     0.854000000    -1.412000000     3.089000000
O    -4.201000000    -6.031000000    -1.888000000
H    -4.042000000    -5.263000000    -1.340000000
H    -4.894000000    -5.759000000    -2.489000000
O    -0.502000000     3.810000000     5.974000000
H     0.220000000     3.445000000     6.486000000
H    -0.536000000     3.264000000     5.188000000
O    -0.449000000     8.396000000     1.208000000
H    -0.666000000     7.464000000     1.221000000
H     0.054000000     8.536000000     2.010000000
O     3.864000000    -4.072000000     2.578000000
H     3.676000000    -3.922000000     1.652000000
H     3.815000000    -3.202000000     2.976000000
O     4.556000000     1.489000000     3.452000000
H     3.699000000     1.877000000     3.630000000
H     5.178000000     2.078000000     3.878000000
O    -2.746000000     0.816000000     2.688000000
H    -2.921000000     0.676000000     1.757000000
H    -2.882000000     1.754000000     2.818000000
O     0.009000000     5.532000000    -4.124000000
H    -0.111000000     6.340000000    -4.623000000
H    -0.436000000     5.696000000    -3.293000000
O     1.991000000     2.556000000     3.522000000
H     1.616000000     2.882000000     2.704000000
H     1.261000000     2.120000000     3.963000000
O     1.482000000    -4.878000000    -4.037000000
H     1.459000000    -4.745000000    -3.089000000
H     0.823000000    -5.554000000    -4.199000000
O     3.879000000    -3.913000000    -0.581000000
H     3.355000000    -3.330000000    -1.130000000
H     4.662000000    -3.403000000    -0.370000000
O     1.528000000     6.317000000     3.676000000
H     0.705000000     6.091000000     3.243000000
H     1.293000000     7.014000000     4.289000000
O     3.017000000     4.504000000    -1.768000000
H     3.244000000     4.739000000    -0.868000000
H     2.959000000     3.549000000    -1.758000000
O    -5.088000000     0.183000000    -0.473000000
H    -5.509000000     0.540000000    -1.255000000
H    -4.191000000    -0.005000000    -0.747000000
O     3.767000000     4.549000000     4.289000000
H     3.255000000     3.817000000     3.947000000
H     3.168000000     5.295000000     4.259000000
O     3.022000000    -1.751000000    -2.385000000
H     3.111000000    -1.094000000    -1.694000000
H     2.932000000    -1.241000000    -3.190000000
O    -4.542000000     6.098000000     0.355000000
H    -3.713000000     6.573000000     0.407000000
H    -4.846000000     6.044000000     1.261000000
O    -3.159000000     3.569000000     2.438000000
H    -2.520000000     3.621000000     1.727000000
H    -3.328000000     4.481000000     2.675000000
O     3.459000000    -1.302000000     3.334000000
H     3.182000000    -1.398000000     4.245000000
H     3.939000000    -0.474000000     3.316000000
O     0.434000000    -7.160000000    -0.054000000
H     0.191000000    -7.931000000     0.458000000
H    -0.334000000    -6.981000000    -0.596000000
O    -3.101000000    -3.915000000     2.218000000
H    -3.099000000    -3.172000000     2.822000000
H    -2.358000000    -4.451000000     2.495000000
O    -5.832000000     2.844000000    -1.525000000
H    -5.965000000     3.792000000    -1.547000000
H    -5.959000000     2.606000000    -0.607000000
O    -0.348000000    -2.211000000    -4.163000000
H     0.461000000    -2.017000000    -3.689000000
H    -0.770000000    -1.359000000    -4.275000000
O    -0.803000000     5.831000000    -1.298000000
H    -1.563000000     5.560000000    -1.814000000
H    -0.740000000     5.176000000    -0.603000000
O     1.038000000    -4.084000000     4.568000000
H     1.006000000    -4.578000000     3.749000000
H     1.089000000    -4.754000000     5.250000000
O    -4.080000000    -1.878000000    -3.347000000
H    -3.730000000    -2.207000000    -2.519000000
H    -5.021000000    -2.046000000    -3.293000000
O     4.028000000    -4.044000000    -3.747000000
H     3.147000000    -4.416000000    -3.710000000
H     3.976000000    -3.250000000    -3.217000000
O     2.070000000     1.654000000    -1.987000000
H     1.975000000     1.056000000    -2.728000000
H     1.793000000     1.141000000    -1.228000000
O     3.077000000     4.479000000     1.026000000
H     3.131000000     5.412000000     1.233000000
H     2.168000000     4.244000000     1.211000000
