144
-2809.84863
O     5.576000000     3.192000000     2.859000000
H     5.386000000     4.129000000     2.908000000
H     6.002000000     3.078000000     2.010000000
O     0.716000000    -6.856000000    -0.958000000
H     0.659000000    -7.733000000    -0.579000000
H     0.060000000    -6.852000000    -1.654000000
O     3.846000000     0.989000000     3.623000000
H     2.969000000     1.341000000     3.470000000
H     4.433000000     1.620000000     3.206000000
O    -3.047000000     0.136000000    -3.483000000
H    -3.306000000    -0.640000000    -2.986000000
H    -2.519000000    -0.207000000    -4.204000000
O    -5.729000000    -0.780000000     2.546000000
H    -5.522000000    -0.203000000     3.281000000
H    -4.964000000    -0.722000000     1.973000000
O    -0.193000000    -0.046000000     5.983000000
H     0.113000000    -0.601000000     5.265000000
H    -0.180000000    -0.618000000     6.750000000
O    -3.461000000     3.920000000    -0.978000000
H    -2.565000000     4.107000000    -0.697000000
H    -3.966000000     4.679000000    -0.687000000
O    -1.956000000    -2.753000000     3.085000000
H    -2.059000000    -2.015000000     2.485000000
H    -1.138000000    -2.573000000     3.548000000
O    -0.418000000    -5.711000000    -4.272000000
H    -0.844000000    -5.767000000    -5.127000000
H    -0.696000000    -6.504000000    -3.813000000
O    -4.060000000    -4.113000000    -0.705000000
H    -3.537000000    -4.346000000     0.062000000
H    -4.941000000    -3.967000000    -0.360000000
O     0.411000000    -3.218000000    -3.628000000
H     1.211000000    -3.482000000    -3.172000000
H    -0.082000000    -4.032000000    -3.736000000
O     5.738000000    -0.555000000     1.524000000
H     6.333000000    -1.267000000     1.761000000
H     5.098000000    -0.530000000     2.235000000
O    -0.551000000     2.148000000    -6.183000000
H    -0.070000000     1.407000000    -6.551000000
H    -0.418000000     2.075000000    -5.238000000
O     0.547000000     0.834000000    -3.520000000
H     0.484000000     0.016000000    -3.026000000
H     0.221000000     1.503000000    -2.918000000
O     0.647000000     5.647000000     3.371000000
H    -0.188000000     5.198000000     3.239000000
H     1.246000000     5.225000000     2.755000000
O    -4.012000000     2.821000000    -3.553000000
H    -3.388000000     2.097000000    -3.603000000
H    -3.994000000     3.091000000    -2.634000000
O    -1.573000000    -2.059000000    -4.966000000
H    -0.731000000    -2.371000000    -4.636000000
H    -2.162000000    -2.117000000    -4.214000000
O     0.521000000    -2.319000000     4.207000000
H     0.581000000    -3.274000000     4.207000000
H     1.429000000    -2.021000000     4.163000000
O    -0.128000000    -7.112000000     3.152000000
H    -0.622000000    -7.591000000     3.817000000
H    -0.321000000    -7.570000000     2.334000000
O    -0.856000000     3.166000000    -3.041000000
H    -1.451000000     3.754000000    -3.507000000
H    -0.963000000     3.399000000    -2.119000000
O    -4.385000000    -6.926000000    -1.400000000
H    -3.660000000    -6.384000000    -1.086000000
H    -4.723000000    -6.455000000    -2.161000000
O     3.633000000    -1.451000000    -4.289000000
H     4.074000000    -2.023000000    -4.918000000
H     3.256000000    -2.050000000    -3.644000000
O     0.226000000     8.439000000     0.955000000
H     1.010000000     8.029000000     0.590000000
H     0.378000000     8.449000000     1.900000000
O     3.006000000    -4.527000000     2.241000000
H     2.289000000    -3.902000000     2.129000000
H     3.181000000    -4.851000000     1.358000000
O    -2.354000000    -0.328000000     1.841000000
H    -3.154000000    -0.102000000     1.368000000
H    -1.646000000    -0.061000000     1.255000000
O    -1.583000000     4.552000000     5.385000000
H    -1.014000000     3.849000000     5.699000000
H    -1.915000000     4.234000000     4.545000000
O     1.610000000     2.956000000     3.591000000
H     1.465000000     2.966000000     2.645000000
H     0.734000000     3.026000000     3.969000000
O     2.937000000    -5.377000000    -0.298000000
H     3.414000000    -5.698000000    -1.063000000
H     2.103000000    -5.845000000    -0.322000000
O     4.552000000    -4.044000000     4.350000000
H     4.289000000    -4.672000000     5.023000000
H     3.994000000    -4.248000000     3.600000000
O     2.803000000     5.369000000     5.019000000
H     2.274000000     5.309000000     4.224000000
H     2.170000000     5.538000000     5.717000000
O    -4.387000000     0.149000000    -0.146000000
H    -3.836000000     0.411000000    -0.883000000
H    -5.254000000     0.496000000    -0.359000000
O     2.743000000     8.314000000    -0.137000000
H     2.729000000     7.402000000     0.151000000
H     3.319000000     8.755000000     0.488000000
O     3.790000000     3.046000000     5.880000000
H     3.379000000     2.528000000     5.188000000
H     3.578000000     3.953000000     5.658000000
O     4.049000000    -1.103000000    -0.724000000
H     3.820000000    -0.176000000    -0.791000000
H     4.807000000    -1.120000000    -0.139000000
O    -5.088000000     5.816000000     0.489000000
H    -4.384000000     6.242000000     0.978000000
H    -5.877000000     5.995000000     1.001000000
O    -1.835000000     4.825000000     2.649000000
H    -1.704000000     4.519000000     1.751000000
H    -2.266000000     5.674000000     2.552000000
O     3.070000000    -1.596000000     3.789000000
H     3.761000000    -2.126000000     4.186000000
H     3.369000000    -0.693000000     3.893000000
O    -2.250000000     8.136000000    -0.485000000
H    -2.904000000     8.477000000     0.124000000
H    -1.426000000     8.176000000     0.001000000
O    -3.103000000    -5.160000000     1.667000000
H    -2.529000000    -4.525000000     2.094000000
H    -2.611000000    -5.981000000     1.692000000
O    -5.000000000     2.846000000     0.885000000
H    -4.391000000     3.216000000     0.246000000
H    -5.725000000     2.511000000     0.358000000
O     2.828000000    -3.167000000    -2.364000000
H     3.166000000    -3.810000000    -1.740000000
H     3.080000000    -2.320000000    -1.996000000
O     0.180000000     5.920000000    -1.059000000
H    -0.659000000     6.275000000    -1.352000000
H    -0.047000000     5.097000000    -0.625000000
O     0.911000000    -5.042000000     4.235000000
H     0.604000000    -5.800000000     3.739000000
H     1.860000000    -5.040000000     4.107000000
O    -3.296000000    -2.478000000    -2.791000000
H    -3.414000000    -3.037000000    -2.023000000
H    -3.557000000    -3.027000000    -3.530000000
O     3.901000000    -6.256000000    -2.678000000
H     3.955000000    -7.207000000    -2.778000000
H     3.261000000    -5.982000000    -3.335000000
O     4.135000000     3.102000000     0.116000000
H     4.306000000     2.538000000    -0.638000000
H     3.181000000     3.130000000     0.183000000
O     4.760000000     1.552000000    -2.091000000
H     4.448000000     2.137000000    -2.782000000
H     5.256000000     0.877000000    -2.553000000
O     2.687000000     5.896000000     0.995000000
H     1.982000000     5.581000000     0.430000000
H     3.304000000     5.165000000     1.038000000
