144
-2807.70589
O     4.220000000     1.498000000     5.461000000
H     3.722000000     1.076000000     6.161000000
H     3.722000000     2.289000000     5.256000000
O     5.966000000     1.516000000    -0.254000000
H     6.906000000     1.609000000    -0.097000000
H     5.850000000     0.592000000    -0.474000000
O    -3.473000000    -0.257000000     5.659000000
H    -3.211000000    -0.524000000     4.778000000
H    -2.694000000    -0.405000000     6.196000000
O    -6.733000000     4.694000000     3.257000000
H    -6.170000000     4.059000000     2.813000000
H    -7.061000000     4.226000000     4.025000000
O     2.925000000     4.280000000     4.898000000
H     2.679000000     4.178000000     5.818000000
H     3.474000000     5.064000000     4.882000000
O     3.525000000    -0.013000000     3.076000000
H     3.815000000     0.229000000     3.955000000
H     4.334000000    -0.111000000     2.575000000
O     2.524000000    -6.589000000    -0.640000000
H     2.454000000    -6.176000000    -1.501000000
H     3.128000000    -7.319000000    -0.773000000
O     3.147000000     1.448000000    -6.171000000
H     2.335000000     0.954000000    -6.279000000
H     3.715000000     0.868000000    -5.663000000
O     0.018000000     2.073000000     7.418000000
H     0.291000000     1.970000000     6.506000000
H     0.768000000     2.484000000     7.847000000
O    -1.947000000    -3.015000000    -3.373000000
H    -2.726000000    -3.427000000    -3.746000000
H    -1.459000000    -3.738000000    -2.979000000
O    -1.313000000    -1.744000000     3.709000000
H    -0.934000000    -2.598000000     3.502000000
H    -0.560000000    -1.155000000     3.766000000
O     3.790000000    -3.158000000    -0.193000000
H     3.296000000    -3.189000000     0.627000000
H     4.477000000    -3.816000000    -0.083000000
O    -7.152000000     1.849000000     2.160000000
H    -6.359000000     1.949000000     1.632000000
H    -6.950000000     1.132000000     2.761000000
O    -5.938000000    -2.426000000     1.086000000
H    -5.591000000    -2.860000000     0.307000000
H    -5.175000000    -2.008000000     1.486000000
O    -2.092000000     3.578000000     4.668000000
H    -2.942000000     3.508000000     4.235000000
H    -1.543000000     2.930000000     4.226000000
O    -3.675000000    -1.160000000     2.417000000
H    -3.249000000    -0.307000000     2.329000000
H    -2.976000000    -1.749000000     2.701000000
O     1.064000000    -0.786000000    -5.327000000
H     0.292000000    -1.352000000    -5.325000000
H     1.044000000    -0.350000000    -4.476000000
O     2.647000000     5.065000000    -1.980000000
H     2.861000000     4.133000000    -1.989000000
H     3.399000000     5.488000000    -2.395000000
O    -1.726000000     0.100000000    -4.097000000
H    -2.407000000    -0.358000000    -3.604000000
H    -1.344000000     0.711000000    -3.466000000
O    -2.578000000     2.974000000     7.363000000
H    -2.633000000     3.010000000     6.408000000
H    -1.696000000     2.648000000     7.540000000
O    -1.495000000     2.563000000    -2.516000000
H    -1.680000000     2.945000000    -1.658000000
H    -2.171000000     2.924000000    -3.090000000
O    -0.509000000    -5.436000000    -2.593000000
H    -1.045000000    -6.077000000    -3.061000000
H     0.389000000    -5.749000000    -2.703000000
O     2.019000000     4.106000000     2.226000000
H     2.059000000     4.026000000     3.179000000
H     2.593000000     3.412000000     1.903000000
O     6.237000000    -1.942000000    -4.724000000
H     5.304000000    -1.761000000    -4.840000000
H     6.608000000    -1.859000000    -5.603000000
O    -7.496000000     0.380000000    -0.713000000
H    -6.699000000     0.856000000    -0.478000000
H    -7.954000000     0.255000000     0.118000000
O     2.983000000    -3.783000000    -3.216000000
H     3.487000000    -3.605000000    -2.422000000
H     2.109000000    -4.009000000    -2.899000000
O     0.511000000     5.473000000    -0.160000000
H     0.811000000     4.974000000     0.599000000
H     1.275000000     5.517000000    -0.735000000
O     1.344000000    -1.127000000     4.221000000
H     2.063000000    -0.941000000     3.618000000
H     1.472000000    -2.042000000     4.471000000
O    -1.920000000     6.055000000     5.663000000
H    -1.097000000     5.965000000     6.144000000
H    -2.100000000     5.175000000     5.330000000
O    -1.979000000    -3.421000000     0.126000000
H    -1.898000000    -4.007000000     0.878000000
H    -1.122000000    -3.001000000     0.056000000
O     3.639000000    -1.935000000    -5.253000000
H     2.724000000    -1.659000000    -5.305000000
H     3.619000000    -2.729000000    -4.719000000
O    -1.427000000    -0.509000000     7.377000000
H    -1.148000000     0.407000000     7.394000000
H    -0.611000000    -1.008000000     7.384000000
O     3.863000000     2.212000000     1.566000000
H     4.615000000     1.930000000     1.044000000
H     3.612000000     1.434000000     2.064000000
O    -4.095000000     4.004000000    -0.942000000
H    -3.377000000     4.618000000    -1.097000000
H    -4.855000000     4.416000000    -1.353000000
O    -4.994000000     1.544000000     0.172000000
H    -4.282000000     1.499000000     0.810000000
H    -4.723000000     2.228000000    -0.441000000
O    -5.764000000     1.153000000     5.318000000
H    -5.976000000     1.511000000     6.180000000
H    -5.008000000     0.587000000     5.473000000
O     5.110000000    -0.884000000    -0.878000000
H     4.793000000    -0.616000000    -1.741000000
H     4.721000000    -1.747000000    -0.738000000
O     0.998000000     2.034000000    -3.165000000
H     1.522000000     2.132000000    -2.369000000
H     0.101000000     2.217000000    -2.885000000
O    -4.174000000    -2.903000000    -1.239000000
H    -3.315000000    -2.943000000    -0.819000000
H    -3.997000000    -3.078000000    -2.163000000
O    -4.674000000     2.897000000     3.107000000
H    -4.033000000     2.295000000     2.729000000
H    -5.070000000     2.405000000     3.826000000
O    -0.190000000     2.455000000    -6.429000000
H    -0.344000000     2.229000000    -5.512000000
H     0.529000000     3.087000000    -6.403000000
O    -3.274000000     5.491000000     1.797000000
H    -3.903000000     4.771000000     1.831000000
H    -2.423000000     5.063000000     1.703000000
O     1.094000000     1.472000000     4.960000000
H     0.416000000     1.715000000     4.329000000
H     1.299000000     0.561000000     4.752000000
O     6.204000000    -0.596000000     2.232000000
H     6.896000000    -0.725000000     1.584000000
H     6.638000000    -0.725000000     3.076000000
O    -1.594000000    -2.364000000    -6.219000000
H    -1.985000000    -3.096000000    -6.697000000
H    -1.518000000    -2.680000000    -5.319000000
O    -5.229000000     0.070000000    -4.437000000
H    -6.112000000     0.304000000    -4.151000000
H    -4.758000000    -0.126000000    -3.626000000
O     3.579000000     2.382000000    -1.828000000
H     4.321000000     2.792000000    -2.273000000
H     3.961000000     1.971000000    -1.054000000
O    -4.446000000    -0.341000000    -1.943000000
H    -4.387000000    -1.182000000    -1.491000000
H    -4.548000000     0.302000000    -1.241000000
