144
-2810.77248
O     4.397000000     3.700000000    -2.596000000
H     3.741000000     4.337000000    -2.314000000
H     5.195000000     4.215000000    -2.714000000
O     0.120000000     5.785000000    -2.165000000
H    -0.129000000     5.160000000    -1.484000000
H     1.031000000     5.572000000    -2.364000000
O     0.990000000    -1.498000000    -2.822000000
H     0.398000000    -2.158000000    -3.184000000
H     0.985000000    -1.663000000    -1.880000000
O    -5.828000000    -0.556000000    -0.438000000
H    -6.533000000    -0.783000000    -1.045000000
H    -5.725000000     0.391000000    -0.534000000
O    -1.824000000    -3.548000000     4.231000000
H    -1.507000000    -4.160000000     3.567000000
H    -1.116000000    -3.502000000     4.872000000
O    -1.790000000     0.452000000    -4.592000000
H    -2.240000000     0.227000000    -5.406000000
H    -1.342000000    -0.354000000    -4.335000000
O     3.229000000    -0.974000000    -4.483000000
H     2.444000000    -1.064000000    -3.943000000
H     3.586000000    -1.861000000    -4.536000000
O     5.504000000     1.484000000     0.993000000
H     5.384000000     0.535000000     0.953000000
H     5.996000000     1.630000000     1.801000000
O     2.088000000     2.779000000     3.009000000
H     2.782000000     2.737000000     3.667000000
H     1.379000000     2.250000000     3.375000000
O     5.782000000    -1.362000000     1.489000000
H     6.174000000    -1.098000000     2.321000000
H     5.913000000    -2.309000000     1.452000000
O    -2.611000000     5.385000000    -1.846000000
H    -1.728000000     5.640000000    -2.112000000
H    -2.504000000     4.516000000    -1.461000000
O     0.957000000     1.132000000     6.140000000
H     0.953000000     0.860000000     5.222000000
H     0.336000000     1.859000000     6.177000000
O    -0.260000000     4.861000000     4.278000000
H    -0.144000000     4.930000000     3.331000000
H     0.474000000     5.352000000     4.646000000
O     3.011000000    -5.553000000     1.535000000
H     3.830000000    -6.048000000     1.499000000
H     3.131000000    -4.943000000     2.262000000
O     2.049000000    -7.166000000    -3.006000000
H     2.231000000    -6.289000000    -2.667000000
H     1.216000000    -7.411000000    -2.604000000
O    -4.242000000     2.092000000     2.281000000
H    -3.847000000     2.963000000     2.281000000
H    -3.734000000     1.599000000     2.926000000
O    -0.685000000     7.033000000     2.028000000
H    -0.112000000     7.716000000     2.377000000
H    -0.090000000     6.413000000     1.607000000
O     2.848000000     5.753000000    -1.608000000
H     3.631000000     5.945000000    -1.092000000
H     2.736000000     6.523000000    -2.166000000
O     4.614000000    -4.864000000    -3.115000000
H     5.160000000    -4.374000000    -2.501000000
H     3.747000000    -4.872000000    -2.710000000
O    -4.538000000     6.889000000    -3.233000000
H    -3.675000000     6.496000000    -3.103000000
H    -4.353000000     7.777000000    -3.539000000
O     2.398000000    -5.120000000    -1.139000000
H     1.495000000    -4.950000000    -0.870000000
H     2.881000000    -5.203000000    -0.317000000
O     0.344000000    -6.620000000     0.113000000
H     0.098000000    -7.533000000    -0.030000000
H     1.018000000    -6.657000000     0.792000000
O     0.768000000     8.597000000    -2.143000000
H     1.074000000     8.295000000    -2.999000000
H     1.089000000     7.937000000    -1.528000000
O    -2.229000000    -0.794000000     3.432000000
H    -2.090000000    -1.737000000     3.512000000
H    -2.988000000    -0.712000000     2.854000000
O    -4.361000000    -1.494000000     1.641000000
H    -5.035000000    -1.379000000     0.972000000
H    -3.856000000    -2.251000000     1.344000000
O     3.446000000    -3.979000000     3.691000000
H     3.212000000    -3.328000000     4.353000000
H     4.400000000    -3.928000000     3.633000000
O    -0.021000000     2.719000000    -6.263000000
H    -0.598000000     2.326000000    -5.608000000
H     0.005000000     2.080000000    -6.975000000
O    -5.308000000     4.101000000    -3.854000000
H    -5.093000000     5.025000000    -3.725000000
H    -4.462000000     3.654000000    -3.844000000
O     1.534000000    -5.710000000     5.035000000
H     1.831000000    -5.166000000     4.306000000
H     1.169000000    -6.490000000     4.618000000
O     0.805000000     4.856000000     1.673000000
H     0.329000000     4.589000000     0.887000000
H     1.335000000     4.093000000     1.903000000
O     1.018000000     1.257000000    -2.771000000
H     1.572000000     0.515000000    -2.526000000
H     0.124000000     0.942000000    -2.641000000
O    -3.725000000    -1.081000000    -2.772000000
H    -4.397000000    -0.669000000    -2.229000000
H    -3.754000000    -0.598000000    -3.597000000
O     6.694000000    -3.784000000    -1.475000000
H     6.266000000    -2.927000000    -1.487000000
H     7.591000000    -3.607000000    -1.760000000
O    -1.253000000    -5.080000000     1.933000000
H    -0.691000000    -5.544000000     1.314000000
H    -1.977000000    -4.752000000     1.400000000
O     5.980000000    -0.992000000    -1.532000000
H     5.886000000    -0.914000000    -0.582000000
H     5.557000000    -0.207000000    -1.880000000
O    -4.643000000     1.930000000    -0.313000000
H    -4.566000000     1.641000000     0.596000000
H    -3.759000000     2.211000000    -0.551000000
O    -3.148000000    -3.981000000     0.338000000
H    -4.091000000    -4.105000000     0.230000000
H    -2.784000000    -4.144000000    -0.532000000
O    -2.685000000     7.896000000    -0.095000000
H    -1.984000000     7.730000000     0.535000000
H    -2.816000000     7.056000000    -0.534000000
O    -5.146000000     4.934000000     0.387000000
H    -5.162000000     3.978000000     0.422000000
H    -4.386000000     5.141000000    -0.158000000
O     1.805000000     3.594000000    -4.133000000
H     1.045000000     3.588000000    -4.714000000
H     1.729000000     2.783000000    -3.631000000
O    -2.566000000     4.095000000     2.028000000
H    -2.263000000     4.930000000     2.384000000
H    -2.077000000     3.992000000     1.211000000
O    -2.999000000     2.808000000    -3.969000000
H    -2.656000000     1.964000000    -4.264000000
H    -2.865000000     2.803000000    -3.021000000
O     0.517000000     0.468000000     3.461000000
H    -0.434000000     0.542000000     3.378000000
H     0.806000000     0.122000000     2.617000000
O    -6.819000000     3.212000000    -1.549000000
H    -6.124000000     2.710000000    -1.123000000
H    -6.429000000     3.514000000    -2.369000000
O     4.119000000     3.709000000     1.311000000
H     3.326000000     3.451000000     1.780000000
H     4.591000000     2.889000000     1.169000000
O    -2.820000000    -3.766000000    -2.259000000
H    -2.808000000    -2.816000000    -2.371000000
H    -3.700000000    -4.028000000    -2.529000000
O    -0.868000000    -2.278000000    -4.768000000
H    -0.119000000    -2.680000000    -5.208000000
H    -1.632000000    -2.697000000    -5.166000000
O     6.108000000    -4.211000000     1.331000000
H     6.063000000    -5.107000000     1.664000000
H     6.288000000    -4.312000000     0.396000000
