144
-2786.55607
O    -1.251000000     3.868000000    -1.829000000
H    -0.977000000     2.955000000    -1.741000000
H    -1.319000000     4.186000000    -0.929000000
O     3.935000000    -0.327000000    -4.187000000
H     3.787000000    -0.900000000    -3.435000000
H     4.850000000    -0.058000000    -4.107000000
O    -3.132000000    -3.583000000     2.624000000
H    -3.420000000    -4.493000000     2.558000000
H    -2.248000000    -3.584000000     2.256000000
O     5.152000000    -4.282000000     0.940000000
H     5.807000000    -4.725000000     1.479000000
H     4.376000000    -4.234000000     1.497000000
O    -4.517000000     1.853000000     6.315000000
H    -4.275000000     1.540000000     7.186000000
H    -3.689000000     2.125000000     5.919000000
O     1.589000000     2.551000000    -0.303000000
H     2.456000000     2.316000000    -0.636000000
H     1.165000000     1.711000000    -0.129000000
O    -1.396000000     4.994000000     0.771000000
H    -1.038000000     5.879000000     0.844000000
H    -1.424000000     4.672000000     1.672000000
O     5.472000000    -0.397000000     0.682000000
H     5.461000000    -0.869000000     1.515000000
H     6.393000000    -0.396000000     0.420000000
O    -3.513000000    -1.431000000    -0.775000000
H    -4.120000000    -2.027000000    -0.336000000
H    -2.992000000    -1.055000000    -0.065000000
O    -2.776000000    -4.325000000     5.942000000
H    -1.928000000    -4.241000000     5.506000000
H    -3.269000000    -3.556000000     5.659000000
O     0.050000000    -3.314000000     4.666000000
H    -0.339000000    -2.442000000     4.731000000
H     0.289000000    -3.402000000     3.743000000
O     4.755000000    -4.676000000    -1.873000000
H     4.940000000    -4.558000000    -0.942000000
H     4.630000000    -3.788000000    -2.208000000
O     1.771000000    -4.459000000    -1.095000000
H     1.407000000    -4.767000000    -1.925000000
H     2.685000000    -4.741000000    -1.115000000
O     0.289000000    -4.476000000     2.117000000
H    -0.090000000    -4.798000000     1.299000000
H     1.091000000    -4.027000000     1.849000000
O    -5.010000000     1.224000000     3.160000000
H    -4.298000000     0.659000000     2.861000000
H    -5.449000000     0.716000000     3.842000000
O     4.256000000     0.852000000     3.206000000
H     5.053000000     1.382000000     3.222000000
H     4.139000000     0.623000000     2.284000000
O     0.825000000     2.202000000     6.086000000
H     1.526000000     2.512000000     5.512000000
H     0.754000000     2.875000000     6.763000000
O    -1.803000000    -1.076000000     5.846000000
H    -1.907000000    -0.665000000     4.988000000
H    -0.909000000    -0.858000000     6.110000000
O     3.816000000     2.717000000    -3.616000000
H     4.351000000     2.395000000    -4.341000000
H     3.454000000     1.926000000    -3.215000000
O     0.275000000     4.507000000     3.106000000
H     0.829000000     5.211000000     3.443000000
H     0.840000000     3.734000000     3.116000000
O    -3.118000000     1.494000000    -6.963000000
H    -3.560000000     2.003000000    -6.283000000
H    -2.677000000     0.791000000    -6.487000000
O     3.151000000    -4.073000000     3.075000000
H     3.186000000    -4.750000000     3.752000000
H     3.164000000    -3.249000000     3.561000000
O     2.872000000     3.147000000     4.315000000
H     3.431000000     3.615000000     3.695000000
H     3.189000000     2.244000000     4.290000000
O     4.753000000    -1.647000000    -1.714000000
H     4.747000000    -1.077000000    -0.945000000
H     5.675000000    -1.703000000    -1.964000000
O    -3.391000000    -0.976000000     2.177000000
H    -3.366000000    -1.924000000     2.306000000
H    -2.671000000    -0.642000000     2.712000000
O    -0.959000000    -3.062000000    -0.722000000
H    -0.552000000    -2.210000000    -0.560000000
H    -0.223000000    -3.671000000    -0.782000000
O    -1.853000000    -2.158000000     8.365000000
H    -2.068000000    -2.008000000     7.444000000
H    -1.072000000    -1.625000000     8.518000000
O     0.346000000    -0.577000000     7.412000000
H     0.505000000     0.310000000     7.091000000
H     0.949000000    -0.677000000     8.149000000
O     3.919000000     1.395000000    -0.769000000
H     4.181000000     0.966000000     0.046000000
H     4.740000000     1.708000000    -1.149000000
O    -4.565000000     2.175000000    -4.711000000
H    -4.386000000     1.750000000    -3.872000000
H    -4.897000000     3.041000000    -4.474000000
O    -1.112000000     4.281000000    -4.683000000
H    -0.702000000     3.423000000    -4.792000000
H    -1.453000000     4.272000000    -3.789000000
O    -1.829000000     2.180000000     5.350000000
H    -1.743000000     1.685000000     4.535000000
H    -1.073000000     1.912000000     5.873000000
O     1.306000000     0.120000000    -5.810000000
H     1.184000000    -0.645000000    -6.372000000
H     2.011000000    -0.131000000    -5.213000000
O    -4.220000000    -2.142000000     5.337000000
H    -3.431000000    -1.610000000     5.235000000
H    -4.922000000    -1.505000000     5.469000000
O    -4.845000000     2.236000000     0.570000000
H    -4.264000000     2.636000000     1.216000000
H    -5.521000000     1.803000000     1.091000000
O     1.001000000    -3.145000000     7.135000000
H     0.941000000    -2.228000000     7.405000000
H     0.735000000    -3.141000000     6.216000000
O    -2.354000000    -1.737000000    -3.208000000
H    -1.446000000    -1.542000000    -2.978000000
H    -2.810000000    -1.780000000    -2.367000000
O    -3.515000000     3.476000000     2.523000000
H    -4.065000000     2.828000000     2.964000000
H    -4.000000000     4.297000000     2.603000000
O    -0.239000000     2.242000000    -5.953000000
H     0.239000000     1.431000000    -5.780000000
H    -1.147000000     1.963000000    -6.076000000
O     3.213000000    -1.385000000     4.248000000
H     2.282000000    -1.209000000     4.111000000
H     3.640000000    -0.541000000     4.103000000
O    -4.179000000     0.848000000    -2.288000000
H    -4.120000000    -0.055000000    -1.976000000
H    -3.765000000     1.367000000    -1.598000000
O     3.120000000    -2.691000000    -6.090000000
H     3.402000000    -1.948000000    -5.556000000
H     3.598000000    -3.439000000    -5.733000000
O    -1.783000000    -0.581000000    -5.624000000
H    -2.261000000    -0.854000000    -4.840000000
H    -1.634000000    -1.394000000    -6.108000000
O    -2.716000000    -4.872000000    -1.809000000
H    -2.766000000    -5.288000000    -0.948000000
H    -2.174000000    -4.096000000    -1.669000000
O     3.778000000     0.870000000    -7.378000000
H     3.938000000     1.799000000    -7.539000000
H     3.008000000     0.854000000    -6.809000000
O     4.159000000    -1.087000000     7.249000000
H     3.882000000    -1.198000000     6.339000000
H     5.029000000    -1.485000000     7.284000000
O    -5.029000000    -1.026000000    -4.416000000
H    -4.206000000    -1.329000000    -4.032000000
H    -5.073000000    -0.098000000    -4.187000000
O    -4.012000000     4.494000000    -0.839000000
H    -4.733000000     4.099000000    -0.348000000
H    -3.267000000     4.461000000    -0.238000000
