144
-2834.53091
O     0.094000000    -3.698000000    -1.607000000
H     0.079000000    -3.156000000    -2.396000000
H     0.510000000    -3.145000000    -0.945000000
O    -4.123000000     3.632000000    -0.117000000
H    -3.616000000     3.619000000    -0.929000000
H    -4.237000000     4.561000000     0.080000000
O     0.589000000     5.209000000     1.347000000
H    -0.228000000     5.212000000     1.847000000
H     1.269000000     5.041000000     1.999000000
O    -7.515000000    -0.694000000    -2.471000000
H    -8.316000000    -0.288000000    -2.140000000
H    -6.856000000    -0.002000000    -2.417000000
O     1.610000000     1.656000000     4.200000000
H     1.863000000     2.579000000     4.187000000
H     0.837000000     1.611000000     3.636000000
O    -0.698000000    -0.788000000     3.370000000
H    -1.525000000    -0.989000000     2.932000000
H    -0.047000000    -0.799000000     2.668000000
O    -1.163000000    -5.102000000     4.279000000
H    -0.674000000    -5.233000000     3.467000000
H    -1.259000000    -5.981000000     4.645000000
O    -3.145000000    -3.285000000    -2.496000000
H    -3.795000000    -3.985000000    -2.554000000
H    -3.066000000    -3.110000000    -1.558000000
O    -5.725000000    -4.517000000     0.942000000
H    -4.794000000    -4.730000000     0.887000000
H    -5.837000000    -3.774000000     0.348000000
O    -3.968000000    -6.664000000    -0.327000000
H    -4.347000000    -7.539000000    -0.245000000
H    -4.067000000    -6.278000000     0.544000000
O    -2.999000000    -4.631000000     1.784000000
H    -2.769000000    -3.753000000     1.481000000
H    -2.615000000    -4.691000000     2.659000000
O    -6.854000000     2.744000000     0.466000000
H    -6.001000000     3.092000000     0.206000000
H    -6.662000000     2.168000000     1.206000000
O    -0.058000000    -1.421000000    -3.106000000
H    -0.375000000    -1.202000000    -3.982000000
H    -0.774000000    -1.172000000    -2.522000000
O     1.916000000     4.485000000    -2.789000000
H     1.757000000     3.726000000    -3.351000000
H     2.843000000     4.425000000    -2.561000000
O     2.424000000    -0.930000000    -2.496000000
H     2.633000000    -0.139000000    -2.994000000
H     1.508000000    -1.110000000    -2.706000000
O    -6.081000000    -1.857000000    -0.492000000
H    -6.616000000    -1.589000000    -1.238000000
H    -5.243000000    -1.415000000    -0.628000000
O    -0.168000000     6.020000000    -1.497000000
H     0.482000000     5.508000000    -1.977000000
H     0.029000000     5.855000000    -0.575000000
O     5.855000000    -3.690000000    -0.711000000
H     5.038000000    -3.324000000    -0.371000000
H     5.702000000    -3.785000000    -1.651000000
O     4.796000000    -1.198000000     2.224000000
H     4.670000000    -0.556000000     2.923000000
H     5.039000000    -2.004000000     2.680000000
O    -7.438000000    -2.134000000     1.883000000
H    -7.573000000    -3.073000000     1.755000000
H    -7.010000000    -1.841000000     1.079000000
O     3.334000000    -1.821000000     5.717000000
H     3.620000000    -1.014000000     5.289000000
H     2.404000000    -1.889000000     5.502000000
O     2.957000000    -4.809000000     0.863000000
H     3.075000000    -3.906000000     0.566000000
H     3.622000000    -5.306000000     0.386000000
O     5.824000000     3.654000000    -1.424000000
H     6.572000000     4.236000000    -1.561000000
H     5.260000000     3.807000000    -2.183000000
O     5.546000000     5.031000000     2.199000000
H     5.486000000     4.169000000     2.613000000
H     5.005000000     4.957000000     1.413000000
O     6.686000000     1.546000000    -3.091000000
H     7.272000000     2.090000000    -3.618000000
H     6.245000000     2.164000000    -2.509000000
O     3.826000000    -4.674000000     4.025000000
H     3.050000000    -4.116000000     3.970000000
H     4.377000000    -4.390000000     3.295000000
O    -3.249000000    -1.571000000     2.631000000
H    -3.972000000    -1.023000000     2.935000000
H    -3.610000000    -2.054000000     1.887000000
O    -4.694000000    -1.558000000    -3.623000000
H    -5.048000000    -0.969000000    -2.957000000
H    -4.032000000    -2.072000000    -3.161000000
O     3.793000000     5.875000000    -0.043000000
H     2.900000000     5.606000000    -0.260000000
H     3.704000000     6.364000000     0.775000000
O     0.590000000    -6.141000000     1.999000000
H     1.055000000    -6.974000000     1.919000000
H     1.187000000    -5.496000000     1.619000000
O    -4.788000000     0.611000000     3.320000000
H    -4.159000000     0.931000000     2.673000000
H    -5.495000000     1.256000000     3.306000000
O    -3.209000000     1.764000000     1.501000000
H    -3.484000000     2.529000000     0.997000000
H    -3.054000000     1.086000000     0.842000000
O     6.641000000     0.311000000     1.154000000
H     5.766000000    -0.076000000     1.132000000
H     6.624000000     0.981000000     0.471000000
O    -1.036000000     2.726000000    -3.759000000
H    -1.446000000     1.918000000    -3.450000000
H    -0.102000000     2.522000000    -3.796000000
O    -2.816000000     0.505000000    -3.886000000
H    -3.342000000    -0.288000000    -3.995000000
H    -3.085000000     1.072000000    -4.609000000
O    -4.920000000     3.053000000    -3.603000000
H    -4.278000000     3.528000000    -3.076000000
H    -4.723000000     3.305000000    -4.505000000
O     3.378000000    -2.403000000    -0.336000000
H     3.485000000    -1.842000000     0.433000000
H     3.028000000    -1.821000000    -1.010000000
O    -2.644000000     4.170000000    -2.261000000
H    -2.667000000     4.852000000    -2.932000000
H    -1.873000000     3.646000000    -2.478000000
O     1.615000000     4.445000000     3.835000000
H     2.423000000     4.735000000     4.258000000
H     0.948000000     4.518000000     4.519000000
O     0.748000000    -2.683000000     5.119000000
H     0.400000000    -3.566000000     5.241000000
H    -0.026000000    -2.121000000     5.098000000
O    -1.036000000    -6.255000000    -0.880000000
H    -0.622000000    -5.401000000    -1.004000000
H    -1.961000000    -6.055000000    -0.742000000
O     3.923000000     0.443000000     4.259000000
H     4.404000000     0.786000000     5.013000000
H     3.075000000     0.886000000     4.294000000
O    -1.059000000     2.010000000     3.230000000
H    -1.215000000     1.119000000     3.542000000
H    -1.743000000     2.158000000     2.576000000
O    -5.553000000     1.053000000    -1.931000000
H    -5.187000000     1.779000000    -2.436000000
H    -4.795000000     0.648000000    -1.510000000
O     1.751000000     2.233000000    -4.723000000
H     1.303000000     2.248000000    -5.569000000
H     2.674000000     2.108000000    -4.943000000
O    -1.982000000    -2.307000000    -5.178000000
H    -1.874000000    -3.037000000    -5.787000000
H    -2.369000000    -2.702000000    -4.396000000
O     5.466000000     2.535000000     3.026000000
H     6.056000000     1.939000000     2.564000000
H     4.760000000     1.974000000     3.346000000
O    -2.159000000    -0.615000000     5.588000000
H    -2.417000000    -1.504000000     5.832000000
H    -1.483000000    -0.736000000     4.921000000
