144
-2793.36948
O     4.136000000     2.504000000    -2.429000000
H     5.018000000     2.828000000    -2.246000000
H     4.260000000     1.841000000    -3.107000000
O     5.079000000    -2.742000000    -5.539000000
H     4.144000000    -2.635000000    -5.710000000
H     5.135000000    -2.882000000    -4.594000000
O     0.294000000    -0.861000000     7.388000000
H     1.030000000    -0.398000000     6.987000000
H    -0.417000000    -0.776000000     6.753000000
O    -1.675000000     2.163000000    -7.142000000
H    -1.696000000     1.692000000    -7.975000000
H    -1.396000000     1.506000000    -6.503000000
O    -4.493000000    -2.585000000     0.150000000
H    -5.423000000    -2.798000000     0.079000000
H    -4.166000000    -3.166000000     0.838000000
O     4.522000000     2.383000000     0.878000000
H     5.052000000     3.177000000     0.812000000
H     3.620000000     2.688000000     0.781000000
O     4.181000000     0.916000000    -4.739000000
H     4.677000000     1.269000000    -5.479000000
H     3.353000000     0.628000000    -5.122000000
O     3.270000000     5.587000000    -0.981000000
H     3.761000000     5.713000000    -0.169000000
H     2.499000000     5.084000000    -0.718000000
O     1.500000000    -2.675000000    -0.517000000
H     1.188000000    -1.770000000    -0.506000000
H     1.065000000    -3.087000000     0.230000000
O    -3.455000000    -2.421000000     6.159000000
H    -2.582000000    -2.801000000     6.064000000
H    -3.954000000    -2.782000000     5.426000000
O     5.833000000    -2.167000000    -2.574000000
H     4.892000000    -2.075000000    -2.425000000
H     6.237000000    -1.791000000    -1.792000000
O     3.375000000    -3.168000000    -2.524000000
H     2.930000000    -2.802000000    -3.288000000
H     2.720000000    -3.136000000    -1.827000000
O    -4.849000000     2.296000000    -0.658000000
H    -5.753000000     2.183000000    -0.364000000
H    -4.561000000     1.413000000    -0.890000000
O     0.467000000    -4.750000000     1.089000000
H     0.059000000    -5.469000000     0.606000000
H    -0.237000000    -4.397000000     1.632000000
O    -2.605000000     3.796000000    -0.663000000
H    -2.166000000     3.707000000     0.183000000
H    -3.384000000     3.245000000    -0.588000000
O    -1.850000000    -0.117000000     5.963000000
H    -2.603000000    -0.666000000     5.748000000
H    -1.519000000     0.180000000     5.115000000
O     1.436000000     0.761000000    -5.987000000
H     1.762000000     0.568000000    -6.866000000
H     1.693000000     1.670000000    -5.830000000
O    -1.780000000     3.479000000     2.238000000
H    -1.108000000     3.640000000     2.900000000
H    -2.286000000     2.744000000     2.585000000
O    -3.914000000    -1.158000000    -3.917000000
H    -3.746000000    -0.350000000    -3.431000000
H    -3.604000000    -1.854000000    -3.338000000
O    -1.023000000     0.081000000    -5.128000000
H    -0.103000000     0.224000000    -5.353000000
H    -1.263000000    -0.716000000    -5.600000000
O     1.492000000    -3.045000000     3.351000000
H     2.101000000    -2.313000000     3.252000000
H     1.776000000    -3.486000000     4.152000000
O    -4.666000000    -1.270000000     3.533000000
H    -4.954000000    -0.756000000     2.779000000
H    -3.711000000    -1.277000000     3.468000000
O    -1.273000000     4.904000000    -2.755000000
H    -1.474000000     4.412000000    -1.959000000
H    -0.368000000     4.669000000    -2.959000000
O     1.998000000     3.486000000    -5.676000000
H     1.432000000     3.814000000    -6.375000000
H     2.867000000     3.823000000    -5.894000000
O     1.115000000     4.371000000     0.364000000
H     0.695000000     3.533000000     0.555000000
H     0.691000000     4.992000000     0.956000000
O    -1.131000000    -3.431000000     3.184000000
H    -0.182000000    -3.319000000     3.137000000
H    -1.475000000    -2.539000000     3.233000000
O     2.264000000     3.576000000     4.055000000
H     2.641000000     3.566000000     4.935000000
H     2.092000000     4.501000000     3.880000000
O    -3.621000000    -4.422000000     1.830000000
H    -4.325000000    -4.909000000     2.259000000
H    -2.946000000    -4.334000000     2.504000000
O    -2.569000000     0.100000000     8.520000000
H    -2.210000000    -0.507000000     7.872000000
H    -2.739000000     0.903000000     8.028000000
O    -0.651000000     3.043000000     7.752000000
H    -0.993000000     3.334000000     6.907000000
H    -0.867000000     2.111000000     7.789000000
O    -0.355000000     2.915000000     4.534000000
H     0.587000000     3.083000000     4.562000000
H    -0.434000000     2.062000000     4.108000000
O     1.340000000     4.043000000    -3.000000000
H     1.373000000     3.846000000    -3.936000000
H     2.019000000     3.488000000    -2.615000000
O    -2.993000000    -3.120000000    -2.145000000
H    -2.664000000    -3.876000000    -1.660000000
H    -3.834000000    -2.920000000    -1.735000000
O     3.477000000    -1.446000000     2.448000000
H     3.713000000    -0.711000000     3.014000000
H     3.199000000    -1.037000000     1.628000000
O    -2.637000000     1.597000000    -3.486000000
H    -2.097000000     0.934000000    -3.917000000
H    -2.081000000     1.942000000    -2.788000000
O    -6.119000000     0.759000000     1.911000000
H    -6.604000000     1.026000000     2.692000000
H    -6.752000000     0.841000000     1.197000000
O    -3.565000000     1.613000000     3.080000000
H    -4.480000000     1.441000000     2.858000000
H    -3.166000000     0.745000000     3.140000000
O     2.357000000    -3.155000000    -6.005000000
H     1.902000000    -3.977000000    -5.825000000
H     1.886000000    -2.777000000    -6.747000000
O    -3.451000000    -3.406000000    -5.932000000
H    -3.413000000    -3.049000000    -5.045000000
H    -3.791000000    -4.294000000    -5.819000000
O    -5.968000000     0.042000000     6.421000000
H    -5.881000000     0.970000000     6.202000000
H    -5.221000000    -0.376000000     5.993000000
O    -1.045000000    -3.529000000     5.808000000
H    -1.021000000    -3.657000000     4.860000000
H    -0.138000000    -3.338000000     6.046000000
O    -5.304000000     2.233000000     5.236000000
H    -5.488000000     3.105000000     5.587000000
H    -4.585000000     2.371000000     4.619000000
O    -0.717000000     6.119000000     2.184000000
H    -1.276000000     6.765000000     2.616000000
H    -1.232000000     5.312000000     2.194000000
O     1.677000000     0.137000000     5.180000000
H     2.569000000     0.396000000     4.947000000
H     1.137000000     0.465000000     4.461000000
O     3.705000000     1.112000000     3.587000000
H     4.441000000     1.321000000     3.011000000
H     3.367000000     1.964000000     3.861000000
O     6.047000000     0.913000000    -1.125000000
H     6.728000000     0.736000000    -0.475000000
H     5.359000000     1.361000000    -0.635000000
O    -6.887000000    -2.976000000     4.012000000
H    -6.207000000    -2.336000000     3.803000000
H    -6.407000000    -3.746000000     4.317000000
O    -3.946000000    -0.299000000    -0.994000000
H    -2.996000000    -0.393000000    -0.925000000
H    -4.289000000    -1.161000000    -0.757000000
