144
-2819.45333
O     6.654000000    -1.383000000    -4.924000000
H     5.750000000    -1.209000000    -4.660000000
H     6.591000000    -2.137000000    -5.510000000
O     4.172000000    -0.417000000    -4.789000000
H     4.361000000     0.383000000    -5.280000000
H     3.533000000    -0.884000000    -5.328000000
O     2.757000000    -3.523000000     1.229000000
H     2.437000000    -2.994000000     1.959000000
H     3.110000000    -2.886000000     0.608000000
O    -6.675000000    -0.605000000     3.346000000
H    -6.030000000    -1.027000000     2.778000000
H    -7.444000000    -0.487000000     2.788000000
O     4.400000000     2.824000000    -2.578000000
H     3.491000000     2.523000000    -2.595000000
H     4.690000000     2.762000000    -3.488000000
O     0.618000000     4.707000000     0.944000000
H     0.697000000     4.858000000     0.002000000
H    -0.126000000     4.110000000     1.029000000
O    -5.874000000     2.662000000     1.420000000
H    -6.783000000     2.476000000     1.655000000
H    -5.742000000     3.575000000     1.675000000
O    -1.683000000    -5.713000000     0.245000000
H    -1.538000000    -6.609000000     0.551000000
H    -1.724000000    -5.191000000     1.046000000
O     5.253000000    -3.290000000    -2.561000000
H     4.454000000    -2.881000000    -2.230000000
H     4.944000000    -4.024000000    -3.092000000
O     1.881000000    -4.305000000    -2.530000000
H     1.049000000    -4.768000000    -2.435000000
H     2.458000000    -4.713000000    -1.885000000
O     0.795000000    -2.375000000    -4.399000000
H     1.249000000    -2.797000000    -3.670000000
H    -0.134000000    -2.527000000    -4.223000000
O    -0.695000000    -5.632000000    -2.365000000
H    -1.002000000    -5.618000000    -1.458000000
H    -0.864000000    -6.526000000    -2.661000000
O    -2.200000000     2.286000000    -3.459000000
H    -2.110000000     2.368000000    -2.510000000
H    -2.561000000     1.409000000    -3.590000000
O    -3.125000000    -1.718000000     5.934000000
H    -2.298000000    -1.690000000     5.452000000
H    -3.773000000    -1.984000000     5.282000000
O    -3.332000000     3.311000000    -0.580000000
H    -2.817000000     2.883000000     0.105000000
H    -4.241000000     3.192000000    -0.305000000
O    -3.223000000     0.001000000    -5.164000000
H    -3.533000000    -0.687000000    -4.575000000
H    -3.567000000    -0.246000000    -6.023000000
O    -0.672000000    -3.758000000     2.417000000
H    -0.062000000    -3.587000000     1.699000000
H    -0.187000000    -4.330000000     3.012000000
O     0.601000000     2.947000000    -4.661000000
H    -0.258000000     2.795000000    -4.267000000
H     0.951000000     2.071000000    -4.820000000
O    -3.186000000    -3.107000000     2.798000000
H    -2.261000000    -3.236000000     2.590000000
H    -3.413000000    -2.278000000     2.377000000
O     6.486000000     1.977000000     2.179000000
H     6.241000000     1.386000000     1.468000000
H     7.047000000     1.450000000     2.747000000
O     0.450000000     0.294000000    -5.114000000
H     0.940000000    -0.403000000    -4.678000000
H    -0.225000000    -0.164000000    -5.615000000
O     0.991000000     4.587000000    -2.061000000
H     0.861000000     3.725000000    -2.456000000
H     0.406000000     5.166000000    -2.550000000
O     1.642000000     2.416000000     5.816000000
H     2.159000000     2.664000000     6.582000000
H     1.263000000     1.568000000     6.047000000
O     0.208000000     0.441000000     7.253000000
H    -0.665000000     0.825000000     7.175000000
H     0.118000000    -0.437000000     6.883000000
O    -1.490000000     3.296000000     2.023000000
H    -2.226000000     3.579000000     2.565000000
H    -1.299000000     2.408000000     2.325000000
O    -5.319000000    -5.039000000    -1.125000000
H    -5.399000000    -5.334000000    -2.032000000
H    -4.690000000    -4.319000000    -1.162000000
O     2.120000000    -1.625000000     2.993000000
H     1.915000000    -1.715000000     3.924000000
H     1.950000000    -0.703000000     2.799000000
O    -4.544000000    -2.404000000    -2.823000000
H    -4.837000000    -1.502000000    -2.690000000
H    -5.255000000    -2.816000000    -3.314000000
O    -1.608000000     4.012000000     5.227000000
H    -2.085000000     4.804000000     5.474000000
H    -2.203000000     3.548000000     4.638000000
O    -6.690000000    -2.218000000     0.691000000
H    -6.033000000    -1.535000000     0.557000000
H    -7.016000000    -2.412000000    -0.188000000
O    -5.268000000     0.174000000     0.850000000
H    -5.247000000     1.070000000     1.186000000
H    -4.443000000    -0.211000000     1.146000000
O     1.838000000    -5.512000000    -5.433000000
H     1.217000000    -4.892000000    -5.051000000
H     2.139000000    -5.086000000    -6.235000000
O     2.499000000    -2.023000000    -6.815000000
H     2.085000000    -1.253000000    -7.204000000
H     1.955000000    -2.229000000    -6.054000000
O    -5.413000000    -3.439000000     4.253000000
H    -4.813000000    -3.379000000     3.510000000
H    -6.284000000    -3.355000000     3.865000000
O     1.127000000     4.835000000     4.652000000
H     0.188000000     4.787000000     4.474000000
H     1.354000000     3.965000000     4.980000000
O     7.238000000     0.474000000    -3.177000000
H     6.405000000     0.938000000    -3.088000000
H     7.063000000    -0.209000000    -3.824000000
O     0.406000000    -2.743000000     6.836000000
H    -0.279000000    -2.629000000     6.177000000
H     1.217000000    -2.521000000     6.379000000
O     4.315000000    -1.434000000    -0.103000000
H     4.994000000    -1.555000000     0.560000000
H     4.382000000    -0.511000000    -0.348000000
O    -4.623000000     0.949000000     3.950000000
H    -4.054000000     0.525000000     3.307000000
H    -5.491000000     0.584000000     3.779000000
O    -5.156000000     2.769000000     5.998000000
H    -4.729000000     2.047000000     5.538000000
H    -5.677000000     2.344000000     6.680000000
O    -3.832000000     3.513000000     3.379000000
H    -4.298000000     2.739000000     3.696000000
H    -4.475000000     4.219000000     3.434000000
O     3.567000000     3.492000000     2.026000000
H     4.187000000     4.207000000     1.881000000
H     2.725000000     3.843000000     1.736000000
O    -0.815000000    -1.752000000     4.452000000
H    -0.693000000    -2.263000000     3.652000000
H    -1.139000000    -0.904000000     4.148000000
O     3.644000000     1.600000000     3.897000000
H     3.841000000     2.180000000     3.162000000
H     2.994000000     2.078000000     4.412000000
O    -2.347000000     0.986000000     5.976000000
H    -2.174000000     1.169000000     5.053000000
H    -2.861000000     0.178000000     5.968000000
O     4.751000000     1.368000000    -0.218000000
H     4.637000000     1.947000000    -0.972000000
H     4.351000000     1.842000000     0.511000000
O    -1.841000000    -3.380000000    -3.599000000
H    -2.763000000    -3.335000000    -3.345000000
H    -1.569000000    -4.265000000    -3.357000000
O    -5.676000000    -0.121000000    -2.021000000
H    -5.518000000     0.118000000    -1.108000000
H    -6.570000000     0.173000000    -2.195000000
