144
-2767.20479
O    -4.298000000    -0.266000000    -1.923000000
H    -3.691000000     0.255000000    -1.398000000
H    -4.547000000     0.311000000    -2.645000000
O    -3.212000000     1.009000000     4.418000000
H    -3.822000000     0.363000000     4.775000000
H    -2.515000000     0.486000000     4.022000000
O    -4.447000000    -1.853000000     1.757000000
H    -4.604000000    -0.960000000     2.063000000
H    -4.076000000    -2.305000000     2.515000000
O     5.767000000     2.947000000    -1.915000000
H     5.312000000     3.773000000    -2.076000000
H     6.378000000     3.144000000    -1.205000000
O     0.586000000     2.745000000    -7.096000000
H     0.366000000     1.953000000    -7.586000000
H    -0.206000000     2.947000000    -6.599000000
O     4.311000000     1.762000000     1.958000000
H     4.387000000     2.688000000     1.725000000
H     3.595000000     1.733000000     2.593000000
O     1.214000000     4.791000000     5.029000000
H     1.320000000     3.926000000     4.633000000
H     0.761000000     5.306000000     4.361000000
O    -4.699000000    -1.114000000     5.974000000
H    -5.155000000    -0.541000000     6.591000000
H    -3.904000000    -1.379000000     6.437000000
O     5.491000000    -2.449000000    -2.048000000
H     4.570000000    -2.188000000    -2.056000000
H     5.585000000    -3.017000000    -2.813000000
O     4.161000000     0.917000000    -2.496000000
H     4.685000000     1.687000000    -2.274000000
H     3.260000000     1.179000000    -2.311000000
O     2.582000000    -2.383000000    -0.385000000
H     2.670000000    -3.028000000     0.317000000
H     2.083000000    -1.667000000     0.008000000
O    -0.700000000     5.100000000     0.197000000
H    -1.139000000     4.498000000     0.798000000
H    -1.302000000     5.841000000     0.118000000
O    -3.637000000    -5.853000000    -2.437000000
H    -3.820000000    -6.725000000    -2.087000000
H    -2.862000000    -5.560000000    -1.957000000
O     2.917000000    -1.596000000    -4.417000000
H     2.850000000    -0.647000000    -4.520000000
H     3.714000000    -1.833000000    -4.891000000
O     2.403000000     2.865000000     8.086000000
H     2.310000000     2.240000000     8.804000000
H     1.769000000     2.573000000     7.430000000
O    -5.091000000    -2.109000000    -3.764000000
H    -4.715000000    -1.536000000    -3.095000000
H    -4.469000000    -2.071000000    -4.490000000
O    -1.967000000    -3.645000000     2.576000000
H    -2.766000000    -3.610000000     3.102000000
H    -1.476000000    -2.865000000     2.834000000
O    -2.083000000     3.454000000    -2.680000000
H    -1.505000000     2.817000000    -2.259000000
H    -2.941000000     3.293000000    -2.288000000
O    -2.191000000     4.446000000    -5.733000000
H    -3.089000000     4.763000000    -5.827000000
H    -1.964000000     4.635000000    -4.823000000
O     5.407000000    -0.085000000     0.405000000
H     5.405000000     0.716000000     0.929000000
H     4.708000000     0.046000000    -0.236000000
O     1.132000000    -3.004000000    -6.025000000
H     1.815000000    -2.583000000    -5.504000000
H     1.094000000    -2.490000000    -6.832000000
O    -0.492000000    -5.648000000     3.942000000
H    -0.981000000    -5.216000000     3.241000000
H     0.212000000    -5.036000000     4.156000000
O    -1.719000000    -1.380000000     6.131000000
H    -1.410000000    -2.230000000     6.443000000
H    -1.612000000    -1.420000000     5.181000000
O     1.010000000    -5.940000000    -0.094000000
H     0.784000000    -5.911000000    -1.023000000
H     0.716000000    -6.802000000     0.198000000
O     4.274000000    -0.948000000     3.602000000
H     3.512000000    -1.244000000     4.101000000
H     4.362000000    -0.022000000     3.825000000
O    -3.251000000     3.494000000     6.093000000
H    -3.370000000     2.729000000     5.529000000
H    -3.254000000     4.238000000     5.490000000
O    -1.888000000    -4.486000000    -0.107000000
H    -1.000000000    -4.781000000    -0.310000000
H    -1.827000000    -4.140000000     0.783000000
O    -3.097000000     1.756000000    -0.071000000
H    -2.263000000     1.336000000     0.142000000
H    -3.093000000     2.568000000     0.436000000
O    -5.225000000    -2.929000000    -0.701000000
H    -4.902000000    -2.488000000     0.085000000
H    -4.478000000    -2.931000000    -1.299000000
O     2.913000000     3.901000000    -1.262000000
H     2.227000000     4.554000000    -1.125000000
H     3.545000000     4.067000000    -0.563000000
O     0.599000000     1.306000000     6.283000000
H     0.504000000     1.095000000     5.354000000
H     0.858000000     0.479000000     6.691000000
O     4.527000000     4.288000000     1.013000000
H     5.417000000     4.256000000     0.662000000
H     4.467000000     5.144000000     1.436000000
O    -4.104000000    -3.390000000     4.228000000
H    -4.796000000    -4.042000000     4.342000000
H    -4.295000000    -2.721000000     4.885000000
O    -0.879000000     2.816000000     3.486000000
H    -0.250000000     2.098000000     3.417000000
H    -1.186000000     2.779000000     4.392000000
O     1.415000000     6.154000000    -0.977000000
H     1.837000000     6.715000000    -0.326000000
H     0.542000000     5.987000000    -0.620000000
O    -2.512000000     0.901000000     7.732000000
H    -2.076000000     1.617000000     7.269000000
H    -2.200000000     0.109000000     7.295000000
O    -2.598000000     3.815000000     1.658000000
H    -3.147000000     4.465000000     2.095000000
H    -2.039000000     3.467000000     2.352000000
O     2.319000000    -4.243000000     1.564000000
H     1.933000000    -5.003000000     1.128000000
H     2.119000000    -4.373000000     2.491000000
O    -3.435000000    -0.539000000    -5.995000000
H    -3.007000000    -1.276000000    -6.430000000
H    -2.983000000     0.234000000    -6.334000000
O     2.258000000    -1.452000000     5.244000000
H     1.538000000    -0.842000000     5.086000000
H     2.203000000    -1.650000000     6.179000000
O     1.909000000    -4.213000000     4.396000000
H     2.157000000    -4.719000000     5.171000000
H     1.911000000    -3.303000000     4.693000000
O     0.242000000     5.154000000    -3.400000000
H     0.682000000     5.399000000    -2.585000000
H    -0.481000000     4.592000000    -3.121000000
O    -5.417000000     0.841000000    -4.361000000
H    -4.813000000     0.325000000    -4.896000000
H    -6.286000000     0.530000000    -4.614000000
O    -1.326000000    -4.384000000     6.848000000
H    -1.659000000    -5.179000000     6.433000000
H    -1.077000000    -4.661000000     7.730000000
O     1.465000000    -1.099000000     7.763000000
H     0.760000000    -1.536000000     8.241000000
H     1.897000000    -0.552000000     8.419000000
O     2.612000000    -3.626000000    -2.600000000
H     2.436000000    -3.088000000    -3.372000000
H     2.241000000    -3.127000000    -1.872000000
O     2.607000000     1.750000000     4.098000000
H     2.830000000     1.567000000     5.011000000
H     1.747000000     1.347000000     3.977000000
O    -2.235000000    -4.051000000    -5.358000000
H    -2.770000000    -4.763000000    -5.008000000
H    -1.467000000    -4.025000000    -4.786000000
