144
-2835.16937
O     4.715000000     1.845000000    -3.756000000
H     4.447000000     2.608000000    -3.244000000
H     5.468000000     2.149000000    -4.263000000
O     1.808000000     5.730000000    -0.792000000
H     1.473000000     5.309000000    -1.583000000
H     2.175000000     6.559000000    -1.099000000
O    -5.380000000    -2.145000000     5.867000000
H    -4.843000000    -1.920000000     5.107000000
H    -5.352000000    -1.363000000     6.419000000
O    -4.399000000    -0.709000000     1.538000000
H    -5.109000000    -0.157000000     1.210000000
H    -4.347000000    -1.431000000     0.911000000
O    -3.618000000    -0.595000000     4.001000000
H    -2.676000000    -0.758000000     3.953000000
H    -3.907000000    -0.592000000     3.088000000
O     3.641000000    -1.526000000     3.319000000
H     4.540000000    -1.277000000     3.537000000
H     3.356000000    -0.865000000     2.687000000
O     5.534000000     4.232000000    -0.090000000
H     5.993000000     3.425000000    -0.324000000
H     4.659000000     3.943000000     0.169000000
O     3.098000000     3.246000000     1.044000000
H     3.555000000     3.001000000     1.849000000
H     2.635000000     4.054000000     1.268000000
O    -1.966000000    -1.419000000    -6.358000000
H    -2.229000000    -1.088000000    -5.499000000
H    -1.079000000    -1.083000000    -6.483000000
O     4.390000000    -1.842000000    -0.877000000
H     3.537000000    -2.268000000    -0.954000000
H     4.217000000    -1.049000000    -0.368000000
O     4.728000000     2.334000000     2.873000000
H     5.320000000     1.610000000     3.080000000
H     4.082000000     2.325000000     3.579000000
O    -0.419000000    -3.778000000    -2.149000000
H    -1.180000000    -3.559000000    -2.688000000
H    -0.661000000    -4.595000000    -1.714000000
O     2.997000000     0.392000000    -5.354000000
H     3.674000000     1.068000000    -5.342000000
H     3.174000000    -0.139000000    -4.577000000
O    -1.820000000     3.683000000    -6.529000000
H    -1.594000000     4.556000000    -6.852000000
H    -1.057000000     3.411000000    -6.019000000
O    -2.886000000     2.049000000     0.634000000
H    -3.262000000     2.626000000     1.299000000
H    -2.396000000     1.396000000     1.134000000
O    -3.325000000    -0.483000000    -3.975000000
H    -4.223000000    -0.417000000    -4.300000000
H    -3.356000000    -0.090000000    -3.103000000
O     0.327000000     1.673000000     8.363000000
H     0.831000000     2.331000000     7.884000000
H    -0.260000000     1.296000000     7.706000000
O     0.965000000    -0.891000000    -6.768000000
H     1.673000000    -0.416000000    -6.332000000
H     1.209000000    -1.813000000    -6.685000000
O    -1.666000000    -4.592000000     0.356000000
H    -1.292000000    -4.166000000     1.128000000
H    -0.934000000    -5.074000000    -0.029000000
O    -1.741000000     5.226000000    -2.845000000
H    -1.904000000     5.813000000    -3.584000000
H    -2.562000000     4.746000000    -2.735000000
O     1.103000000     3.177000000    -5.585000000
H     1.417000000     3.629000000    -6.369000000
H     1.569000000     2.341000000    -5.588000000
O     2.717000000    -4.540000000     1.418000000
H     2.713000000    -5.217000000     0.741000000
H     2.465000000    -3.740000000     0.957000000
O     2.045000000     5.972000000     1.932000000
H     1.659000000     6.799000000     2.221000000
H     1.794000000     5.900000000     1.011000000
O    -0.885000000     4.174000000     0.013000000
H    -1.449000000     3.430000000     0.224000000
H    -0.245000000     3.821000000    -0.606000000
O    -2.567000000    -3.081000000    -3.511000000
H    -2.866000000    -2.194000000    -3.712000000
H    -2.880000000    -3.612000000    -4.243000000
O    -3.771000000     0.307000000    -1.229000000
H    -3.318000000    -0.404000000    -0.775000000
H    -3.591000000     1.083000000    -0.698000000
O    -3.871000000    -2.893000000    -0.625000000
H    -3.831000000    -2.812000000    -1.578000000
H    -2.969000000    -3.076000000    -0.363000000
O    -4.215000000    -5.372000000     0.695000000
H    -3.303000000    -5.261000000     0.429000000
H    -4.672000000    -4.629000000     0.300000000
O    -3.901000000     3.472000000    -3.231000000
H    -3.976000000     3.169000000    -4.136000000
H    -3.952000000     2.674000000    -2.705000000
O    -0.646000000     3.603000000     2.667000000
H    -0.619000000     3.926000000     1.767000000
H     0.148000000     3.953000000     3.071000000
O     3.642000000     0.330000000     1.024000000
H     4.223000000     1.049000000     1.273000000
H     2.937000000     0.751000000     0.532000000
O    -0.861000000    -1.763000000     6.101000000
H    -1.085000000    -1.923000000     5.184000000
H     0.096000000    -1.756000000     6.116000000
O    -3.420000000    -4.712000000     5.423000000
H    -4.239000000    -4.405000000     5.034000000
H    -2.815000000    -4.782000000     4.685000000
O    -2.263000000     0.478000000     7.396000000
H    -1.997000000    -0.428000000     7.240000000
H    -2.099000000     0.923000000     6.565000000
O    -3.528000000     3.465000000     2.830000000
H    -3.625000000     4.380000000     3.095000000
H    -2.694000000     3.192000000     3.212000000
O     4.623000000     4.321000000    -2.474000000
H     4.117000000     5.110000000    -2.667000000
H     4.936000000     4.451000000    -1.579000000
O    -2.148000000    -3.315000000     7.876000000
H    -2.692000000    -3.685000000     7.180000000
H    -1.628000000    -2.640000000     7.439000000
O    -1.025000000     1.740000000     5.296000000
H    -1.091000000     2.552000000     4.794000000
H    -0.257000000     1.297000000     4.936000000
O    -1.657000000    -4.202000000     3.418000000
H    -0.832000000    -4.353000000     3.878000000
H    -1.665000000    -3.261000000     3.242000000
O     0.885000000     4.934000000    -3.404000000
H     1.074000000     4.404000000    -4.178000000
H    -0.058000000     4.840000000    -3.273000000
O     1.749000000    -1.573000000     5.245000000
H     1.176000000    -0.899000000     4.880000000
H     2.459000000    -1.654000000     4.609000000
O     1.486000000     4.267000000     4.086000000
H     1.083000000     4.909000000     4.670000000
H     1.641000000     4.748000000     3.272000000
O     1.549000000    -2.608000000     7.722000000
H     1.560000000    -2.229000000     6.844000000
H     1.398000000    -1.863000000     8.303000000
O     3.486000000     0.468000000     6.806000000
H     4.176000000     1.042000000     7.139000000
H     3.116000000     0.945000000     6.063000000
O     2.078000000    -3.823000000    -3.285000000
H     1.923000000    -3.752000000    -4.227000000
H     1.220000000    -3.673000000    -2.889000000
O     1.564000000    -2.728000000    -0.363000000
H     0.944000000    -3.040000000    -1.022000000
H     1.075000000    -2.071000000     0.133000000
O     2.236000000     1.662000000     4.853000000
H     1.927000000     2.544000000     4.646000000
H     1.668000000     1.084000000     4.344000000
O     4.471000000    -1.777000000    -3.951000000
H     3.758000000    -2.380000000    -4.164000000
H     4.723000000    -2.009000000    -3.058000000
