144
-2819.08913
O     3.404000000     5.699000000    -0.719000000
H     3.360000000     6.619000000    -0.979000000
H     2.536000000     5.509000000    -0.364000000
O    -5.592000000    -2.009000000    -1.535000000
H    -5.175000000    -1.502000000    -2.232000000
H    -6.449000000    -1.597000000    -1.419000000
O    -4.055000000    -2.053000000     2.299000000
H    -4.027000000    -2.313000000     3.220000000
H    -4.194000000    -2.872000000     1.823000000
O    -2.277000000    -0.324000000     3.659000000
H    -1.356000000    -0.521000000     3.488000000
H    -2.760000000    -0.954000000     3.125000000
O    -1.622000000    -2.909000000    -4.641000000
H    -1.749000000    -2.000000000    -4.915000000
H    -0.773000000    -3.153000000    -5.009000000
O     5.194000000     4.445000000     2.145000000
H     4.981000000     3.519000000     2.265000000
H     4.368000000     4.903000000     2.302000000
O    -1.460000000     1.440000000     7.944000000
H    -0.782000000     0.876000000     7.571000000
H    -1.244000000     2.317000000     7.626000000
O    -1.840000000    -0.392000000    -5.846000000
H    -2.535000000     0.234000000    -5.644000000
H    -1.162000000     0.133000000    -6.273000000
O     3.128000000    -0.762000000    -1.128000000
H     2.288000000    -0.304000000    -1.159000000
H     3.665000000    -0.239000000    -0.532000000
O     0.797000000     5.297000000    -0.882000000
H    -0.031000000     4.904000000    -0.607000000
H     0.775000000     5.259000000    -1.838000000
O     0.975000000    -3.327000000    -2.197000000
H     0.569000000    -2.675000000    -1.625000000
H     0.323000000    -4.024000000    -2.267000000
O    -4.139000000     2.281000000    -5.489000000
H    -4.082000000     3.205000000    -5.735000000
H    -4.964000000     1.983000000    -5.871000000
O     2.684000000     0.574000000    -3.768000000
H     3.061000000     0.467000000    -2.894000000
H     2.555000000    -0.320000000    -4.084000000
O    -2.179000000     2.636000000     1.550000000
H    -1.522000000     3.030000000     2.124000000
H    -2.006000000     1.696000000     1.598000000
O    -4.706000000     0.239000000    -3.217000000
H    -4.144000000     0.787000000    -3.764000000
H    -5.442000000     0.806000000    -2.986000000
O     1.201000000     3.356000000     6.714000000
H     1.773000000     2.591000000     6.783000000
H     0.642000000     3.170000000     5.960000000
O    -3.741000000    -4.639000000    -4.838000000
H    -2.910000000    -4.166000000    -4.857000000
H    -4.277000000    -4.208000000    -5.504000000
O    -0.984000000    -6.696000000     2.216000000
H    -1.566000000    -6.141000000     2.734000000
H    -0.335000000    -7.014000000     2.844000000
O     0.087000000     4.719000000    -3.535000000
H    -0.243000000     5.347000000    -4.177000000
H    -0.683000000     4.211000000    -3.279000000
O     2.099000000     3.068000000    -4.789000000
H     2.059000000     2.144000000    -4.543000000
H     1.785000000     3.536000000    -4.016000000
O     3.452000000    -4.161000000     4.911000000
H     2.815000000    -4.427000000     4.248000000
H     3.616000000    -3.236000000     4.728000000
O    -0.406000000     2.265000000    -7.005000000
H    -0.721000000     3.070000000    -7.417000000
H     0.278000000     2.556000000    -6.402000000
O     0.423000000    -4.970000000     5.734000000
H     0.750000000    -4.098000000     5.510000000
H     0.289000000    -5.400000000     4.890000000
O    -1.489000000     3.525000000    -1.089000000
H    -1.930000000     3.123000000    -0.340000000
H    -2.043000000     3.307000000    -1.838000000
O    -2.609000000     2.845000000     4.975000000
H    -1.785000000     2.381000000     5.119000000
H    -2.380000000     3.563000000     4.385000000
O    -1.901000000    -5.180000000    -0.340000000
H    -1.251000000    -5.473000000    -0.979000000
H    -1.569000000    -5.497000000     0.500000000
O    -4.974000000     0.122000000     0.809000000
H    -4.617000000    -0.531000000     1.412000000
H    -4.732000000    -0.197000000    -0.060000000
O    -5.219000000    -4.231000000     0.993000000
H    -5.216000000    -3.914000000     0.090000000
H    -5.182000000    -5.184000000     0.913000000
O    -2.391000000     3.520000000    -3.750000000
H    -2.979000000     4.235000000    -3.993000000
H    -2.783000000     2.742000000    -4.147000000
O     2.854000000     5.402000000     3.045000000
H     2.709000000     6.342000000     3.156000000
H     2.977000000     5.072000000     3.935000000
O     4.472000000     0.925000000     0.501000000
H     4.668000000     1.692000000    -0.037000000
H     4.540000000     1.240000000     1.402000000
O     0.207000000    -0.066000000     6.370000000
H     0.204000000    -0.314000000     5.445000000
H     1.082000000     0.292000000     6.519000000
O    -2.049000000    -4.629000000     3.857000000
H    -2.598000000    -4.000000000     4.325000000
H    -1.196000000    -4.200000000     3.790000000
O    -3.706000000     0.456000000     6.098000000
H    -3.352000000     0.503000000     5.210000000
H    -3.330000000     1.213000000     6.546000000
O    -0.160000000     4.591000000     3.152000000
H     0.627000000     4.516000000     2.612000000
H    -0.129000000     5.482000000     3.498000000
O     5.030000000     3.336000000    -0.768000000
H     5.941000000     3.585000000    -0.613000000
H     4.538000000     4.150000000    -0.657000000
O    -2.042000000    -1.654000000     6.967000000
H    -2.820000000    -1.127000000     6.788000000
H    -1.308000000    -1.070000000     6.775000000
O    -0.023000000     2.156000000     4.561000000
H     0.061000000     2.721000000     3.792000000
H     0.593000000     1.441000000     4.401000000
O     0.442000000    -3.444000000     3.579000000
H     1.198000000    -3.548000000     3.001000000
H     0.381000000    -2.500000000     3.724000000
O     4.055000000    -1.457000000     4.842000000
H     3.251000000    -1.123000000     4.445000000
H     4.755000000    -1.125000000     4.280000000
O     2.740000000    -3.692000000     2.163000000
H     3.550000000    -4.192000000     2.265000000
H     2.630000000    -3.606000000     1.216000000
O    -4.915000000    -0.778000000    -6.712000000
H    -5.110000000    -0.607000000    -5.790000000
H    -5.757000000    -0.681000000    -7.157000000
O     3.238000000     4.535000000     5.447000000
H     2.478000000     4.210000000     5.930000000
H     3.815000000     4.894000000     6.121000000
O     2.658000000    -2.411000000     7.795000000
H     2.560000000    -1.649000000     8.366000000
H     3.246000000    -2.116000000     7.100000000
O     2.909000000     1.049000000     6.694000000
H     2.966000000     0.675000000     7.573000000
H     3.808000000     1.033000000     6.367000000
O     2.057000000    -2.084000000    -4.429000000
H     1.607000000    -2.723000000    -4.982000000
H     1.877000000    -2.372000000    -3.534000000
O     3.441000000    -3.572000000    -0.733000000
H     2.664000000    -3.761000000    -1.260000000
H     3.518000000    -2.618000000    -0.753000000
O     4.297000000     1.915000000     3.086000000
H     4.547000000     1.613000000     3.959000000
H     3.367000000     1.700000000     3.015000000
