144
-2805.67060
O     4.290000000     2.327000000    -0.741000000
H     3.694000000     2.964000000    -0.346000000
H     3.870000000     2.087000000    -1.567000000
O    -4.624000000    -5.935000000     1.347000000
H    -4.323000000    -5.246000000     1.940000000
H    -5.203000000    -6.476000000     1.884000000
O     3.761000000     6.095000000    -1.601000000
H     2.938000000     6.282000000    -2.053000000
H     4.356000000     5.810000000    -2.294000000
O    -6.921000000    -2.553000000     2.479000000
H    -7.448000000    -1.854000000     2.092000000
H    -6.512000000    -2.150000000     3.245000000
O     3.939000000     1.235000000    -5.667000000
H     4.097000000     0.449000000    -5.144000000
H     4.775000000     1.406000000    -6.100000000
O     3.534000000    -0.931000000     3.522000000
H     4.218000000    -0.891000000     4.190000000
H     2.718000000    -0.995000000     4.019000000
O    -5.419000000    -1.446000000    -3.391000000
H    -6.347000000    -1.534000000    -3.609000000
H    -5.065000000    -0.877000000    -4.075000000
O    -3.765000000    -3.357000000    -1.742000000
H    -4.187000000    -2.816000000    -2.409000000
H    -4.148000000    -3.061000000    -0.916000000
O     3.725000000     2.663000000     4.418000000
H     4.516000000     2.399000000     3.947000000
H     3.502000000     3.518000000     4.050000000
O    -0.461000000    -1.601000000     7.469000000
H    -0.153000000    -1.765000000     6.577000000
H    -0.899000000    -2.414000000     7.723000000
O     6.013000000    -2.490000000    -0.359000000
H     5.215000000    -2.335000000     0.147000000
H     6.434000000    -3.230000000     0.078000000
O    -2.583000000     0.618000000    -3.988000000
H    -2.933000000     1.170000000    -3.289000000
H    -3.357000000     0.225000000    -4.392000000
O     1.675000000    -0.556000000    -6.058000000
H     1.890000000    -0.777000000    -5.153000000
H     2.139000000     0.265000000    -6.221000000
O     1.996000000    -5.011000000    -1.197000000
H     2.861000000    -4.989000000    -1.605000000
H     1.905000000    -4.155000000    -0.779000000
O    -3.854000000     4.076000000     0.433000000
H    -3.656000000     4.371000000     1.322000000
H    -2.998000000     3.895000000     0.045000000
O    -1.404000000     1.553000000     3.164000000
H    -0.832000000     0.944000000     2.697000000
H    -0.822000000     2.011000000     3.770000000
O    -0.968000000     2.756000000    -4.957000000
H    -0.970000000     1.802000000    -5.034000000
H    -1.356000000     2.929000000    -4.100000000
O     0.932000000     6.164000000    -1.843000000
H     0.230000000     6.666000000    -1.429000000
H     0.626000000     6.018000000    -2.739000000
O    -5.992000000    -0.417000000    -0.765000000
H    -5.583000000    -0.406000000    -1.630000000
H    -5.466000000    -1.036000000    -0.259000000
O    -4.368000000    -5.874000000     4.909000000
H    -4.117000000    -5.239000000     4.238000000
H    -3.575000000    -5.996000000     5.431000000
O    -2.963000000    -4.331000000     2.710000000
H    -2.131000000    -4.795000000     2.797000000
H    -2.721000000    -3.405000000     2.686000000
O    -2.270000000     5.100000000    -2.702000000
H    -1.732000000     5.139000000    -1.911000000
H    -3.096000000     5.513000000    -2.450000000
O     6.443000000    -1.214000000     2.140000000
H     5.638000000    -1.532000000     1.733000000
H     6.555000000    -0.330000000     1.792000000
O    -0.363000000    -4.575000000     2.522000000
H    -0.145000000    -3.673000000     2.285000000
H     0.205000000    -4.770000000     3.268000000
O     6.716000000     1.120000000     0.541000000
H     7.026000000     0.724000000    -0.274000000
H     5.857000000     1.479000000     0.321000000
O     2.120000000     3.931000000    -0.250000000
H     1.640000000     3.864000000     0.575000000
H     1.676000000     4.631000000    -0.729000000
O    -1.111000000     3.568000000    -0.473000000
H    -0.459000000     3.821000000     0.181000000
H    -1.305000000     2.652000000    -0.276000000
O    -4.843000000    -2.186000000     0.800000000
H    -5.546000000    -2.523000000     1.355000000
H    -4.133000000    -1.983000000     1.409000000
O     4.448000000    -1.204000000    -4.376000000
H     5.157000000    -1.169000000    -3.734000000
H     4.077000000    -2.081000000    -4.276000000
O    -3.278000000    -6.107000000    -0.893000000
H    -3.400000000    -5.239000000    -1.279000000
H    -3.753000000    -6.068000000    -0.063000000
O    -3.690000000     2.052000000    -1.590000000
H    -3.408000000     1.771000000    -0.719000000
H    -4.027000000     2.938000000    -1.457000000
O    -5.398000000     1.550000000    -3.690000000
H    -5.000000000     2.154000000    -4.317000000
H    -5.008000000     1.788000000    -2.849000000
O     1.167000000     2.282000000     4.405000000
H     2.111000000     2.442000000     4.402000000
H     0.845000000     2.759000000     5.170000000
O     0.325000000     4.053000000     1.964000000
H     0.468000000     3.433000000     2.680000000
H     0.187000000     4.894000000     2.400000000
O     2.664000000    -3.768000000     5.868000000
H     2.173000000    -2.952000000     5.771000000
H     3.232000000    -3.799000000     5.098000000
O    -4.866000000    -0.677000000     3.859000000
H    -4.190000000    -1.278000000     3.546000000
H    -4.611000000    -0.479000000     4.760000000
O     2.464000000     3.300000000    -4.168000000
H     3.095000000     2.815000000    -4.700000000
H     1.903000000     2.625000000    -3.787000000
O    -3.577000000    -0.471000000     6.480000000
H    -3.327000000     0.432000000     6.675000000
H    -4.224000000    -0.691000000     7.150000000
O    -2.006000000    -5.544000000     6.067000000
H    -1.165000000    -5.932000000     5.823000000
H    -1.907000000    -4.613000000     5.865000000
O    -3.554000000     1.072000000     1.557000000
H    -2.846000000     1.456000000     2.074000000
H    -4.042000000     0.535000000     2.182000000
O    -1.838000000    -2.950000000     5.562000000
H    -2.322000000    -2.197000000     5.898000000
H    -1.572000000    -2.690000000     4.679000000
O     2.953000000     6.116000000    -4.329000000
H     2.920000000     5.180000000    -4.135000000
H     2.041000000     6.402000000    -4.283000000
O     4.183000000    -2.677000000     1.496000000
H     4.544000000    -3.463000000     1.904000000
H     3.730000000    -2.224000000     2.207000000
O     1.791000000    -2.575000000    -0.236000000
H     1.197000000    -1.831000000    -0.137000000
H     2.461000000    -2.437000000     0.433000000
O     1.102000000    -1.116000000     5.106000000
H     0.903000000    -0.212000000     4.862000000
H     0.461000000    -1.640000000     4.625000000
O     1.085000000    -2.039000000    -3.228000000
H     0.160000000    -2.211000000    -3.400000000
H     1.153000000    -2.025000000    -2.273000000
O     0.446000000     4.249000000    -6.575000000
H     0.926000000     4.873000000    -6.030000000
H    -0.011000000     3.687000000    -5.950000000
O    -1.750000000    -2.594000000    -3.499000000
H    -2.434000000    -2.976000000    -4.049000000
H    -1.923000000    -2.944000000    -2.625000000
