144
-2836.83147
O    -6.483000000     1.604000000    -0.545000000
H    -6.141000000     2.104000000    -1.287000000
H    -7.191000000     1.077000000    -0.917000000
O    -3.634000000     2.879000000     2.688000000
H    -2.809000000     2.815000000     2.206000000
H    -4.146000000     2.129000000     2.385000000
O    -5.645000000    -2.180000000    -4.509000000
H    -5.986000000    -2.694000000    -3.777000000
H    -5.137000000    -1.483000000    -4.095000000
O     4.963000000     4.052000000    -1.925000000
H     5.012000000     3.640000000    -2.787000000
H     4.886000000     4.988000000    -2.110000000
O     0.707000000    -4.108000000     5.243000000
H     0.687000000    -3.311000000     5.772000000
H     1.601000000    -4.148000000     4.904000000
O     6.735000000     0.855000000    -1.249000000
H     7.083000000     1.610000000    -1.723000000
H     5.937000000     1.181000000    -0.832000000
O    -0.875000000     3.011000000     1.545000000
H    -0.525000000     2.520000000     0.801000000
H    -1.338000000     3.748000000     1.149000000
O    -4.545000000    -5.140000000     5.224000000
H    -4.677000000    -5.129000000     6.172000000
H    -3.604000000    -5.001000000     5.112000000
O    -2.119000000    -3.206000000    -2.829000000
H    -2.323000000    -4.140000000    -2.799000000
H    -2.480000000    -2.855000000    -2.015000000
O     4.355000000     0.872000000     5.451000000
H     4.096000000     0.785000000     4.534000000
H     5.161000000     1.389000000     5.424000000
O    -3.395000000     3.534000000    -1.263000000
H    -3.577000000     4.095000000    -2.017000000
H    -3.104000000     4.138000000    -0.580000000
O    -0.770000000    -4.638000000    -0.248000000
H    -1.492000000    -4.102000000     0.081000000
H    -0.604000000    -5.271000000     0.451000000
O     2.467000000     1.665000000    -4.444000000
H     2.843000000     1.638000000    -5.324000000
H     3.182000000     1.972000000    -3.888000000
O     1.123000000    -3.128000000    -1.906000000
H     0.202000000    -3.216000000    -2.151000000
H     1.119000000    -3.151000000    -0.949000000
O     1.016000000    -0.699000000    -3.896000000
H     1.749000000    -0.090000000    -3.980000000
H     1.354000000    -1.406000000    -3.346000000
O    -3.761000000    -5.022000000     0.835000000
H    -4.360000000    -4.925000000     1.576000000
H    -3.279000000    -4.196000000     0.808000000
O    -2.051000000     5.052000000     0.347000000
H    -2.302000000     5.458000000     1.176000000
H    -1.292000000     5.556000000     0.053000000
O     4.581000000     0.871000000     2.354000000
H     3.695000000     1.159000000     2.576000000
H     4.808000000     1.376000000     1.573000000
O    -0.696000000     2.603000000     4.525000000
H    -0.566000000     3.486000000     4.870000000
H    -1.014000000     2.738000000     3.632000000
O     3.237000000    -4.640000000     1.550000000
H     3.584000000    -3.901000000     1.050000000
H     3.577000000    -5.414000000     1.102000000
O     5.394000000     2.956000000     0.804000000
H     6.110000000     3.458000000     1.194000000
H     5.215000000     3.399000000    -0.025000000
O     7.129000000    -1.793000000    -1.086000000
H     7.160000000    -0.837000000    -1.109000000
H     6.386000000    -2.022000000    -1.644000000
O     3.199000000    -4.091000000     4.304000000
H     3.340000000    -4.326000000     3.387000000
H     3.987000000    -4.396000000     4.754000000
O    -3.357000000    -2.623000000     3.497000000
H    -2.984000000    -2.614000000     2.615000000
H    -2.905000000    -3.339000000     3.942000000
O    -0.089000000     6.489000000    -0.593000000
H     0.706000000     6.476000000    -1.126000000
H     0.228000000     6.541000000     0.308000000
O    -7.922000000    -0.294000000    -2.356000000
H    -8.477000000    -1.065000000    -2.237000000
H    -7.106000000    -0.639000000    -2.719000000
O     0.781000000    -5.302000000     2.703000000
H     0.718000000    -4.547000000     3.287000000
H     1.633000000    -5.204000000     2.276000000
O    -6.113000000     1.015000000     4.161000000
H    -5.708000000     0.762000000     3.331000000
H    -6.291000000     1.950000000     4.065000000
O    -4.850000000     0.728000000     1.484000000
H    -5.450000000     1.145000000     0.866000000
H    -4.511000000    -0.034000000     1.013000000
O     4.432000000    -1.915000000     2.136000000
H     4.246000000    -0.976000000     2.105000000
H     4.248000000    -2.165000000     3.041000000
O    -7.427000000    -3.483000000    -2.241000000
H    -7.117000000    -2.981000000    -1.488000000
H    -7.160000000    -4.383000000    -2.055000000
O    -5.482000000    -4.677000000     2.867000000
H    -5.575000000    -3.724000000     2.889000000
H    -5.062000000    -4.896000000     3.699000000
O    -5.783000000     3.103000000    -2.744000000
H    -4.843000000     3.268000000    -2.668000000
H    -5.918000000     2.914000000    -3.673000000
O     4.833000000    -2.562000000    -3.413000000
H     4.348000000    -3.072000000    -2.764000000
H     4.166000000    -2.271000000    -4.036000000
O    -7.281000000    -2.309000000     2.183000000
H    -7.505000000    -3.222000000     2.002000000
H    -7.997000000    -1.991000000     2.733000000
O     3.795000000     6.431000000    -2.552000000
H     3.042000000     5.964000000    -2.914000000
H     3.415000000     7.190000000    -2.109000000
O    -3.438000000     1.287000000    -3.470000000
H    -2.907000000     2.026000000    -3.173000000
H    -2.804000000     0.590000000    -3.639000000
O     5.057000000     3.932000000     4.080000000
H     5.707000000     3.738000000     3.405000000
H     4.231000000     3.611000000     3.717000000
O    -5.826000000    -2.510000000    -0.134000000
H    -6.330000000    -2.397000000     0.672000000
H    -5.033000000    -1.992000000     0.004000000
O     5.230000000     2.521000000    -4.386000000
H     5.244000000     2.444000000    -5.340000000
H     6.134000000     2.355000000    -4.120000000
O    -1.881000000    -4.792000000     4.388000000
H    -0.978000000    -4.483000000     4.462000000
H    -1.802000000    -5.742000000     4.301000000
O    -3.446000000    -5.568000000    -1.871000000
H    -3.770000000    -4.997000000    -1.175000000
H    -3.085000000    -6.326000000    -1.410000000
O     2.130000000     1.571000000     3.164000000
H     1.675000000     1.575000000     4.006000000
H     1.477000000     1.882000000     2.537000000
O    -5.128000000    -0.654000000    -2.432000000
H    -4.633000000     0.165000000    -2.477000000
H    -5.271000000    -0.797000000    -1.497000000
O     1.141000000     5.672000000    -3.147000000
H     0.268000000     5.365000000    -2.903000000
H     1.230000000     5.434000000    -4.070000000
O    -1.570000000    -0.910000000    -4.384000000
H    -0.633000000    -0.760000000    -4.258000000
H    -1.736000000    -1.754000000    -3.965000000
O    -3.922000000    -0.679000000     5.315000000
H    -3.385000000    -1.010000000     4.596000000
H    -4.697000000    -0.314000000     4.887000000
O    -2.741000000    -7.919000000     1.827000000
H    -2.381000000    -7.563000000     2.639000000
H    -3.339000000    -7.241000000     1.512000000
