144
-2818.92749
O     5.438000000     2.150000000    -0.662000000
H     5.401000000     2.826000000    -1.339000000
H     5.353000000     2.630000000     0.162000000
O     3.129000000     0.233000000    -2.421000000
H     3.359000000     0.797000000    -1.683000000
H     2.559000000    -0.437000000    -2.043000000
O     4.995000000     1.135000000     2.898000000
H     4.577000000     0.505000000     3.484000000
H     4.404000000     1.888000000     2.895000000
O     2.003000000     5.289000000     2.067000000
H     1.089000000     5.384000000     1.799000000
H     2.491000000     5.840000000     1.455000000
O    -3.783000000    -6.420000000     1.418000000
H    -3.375000000    -7.250000000     1.171000000
H    -3.096000000    -5.946000000     1.886000000
O     0.064000000    -0.995000000     4.647000000
H     0.827000000    -1.249000000     5.166000000
H    -0.064000000    -1.722000000     4.038000000
O    -4.962000000    -2.074000000    -1.643000000
H    -5.591000000    -1.611000000    -1.090000000
H    -5.038000000    -1.652000000    -2.498000000
O    -2.366000000     5.714000000    -3.913000000
H    -2.684000000     6.575000000    -3.641000000
H    -2.651000000     5.122000000    -3.217000000
O    -1.928000000    -4.782000000    -3.274000000
H    -2.152000000    -3.982000000    -3.752000000
H    -2.343000000    -4.673000000    -2.418000000
O    -1.202000000     3.816000000     1.788000000
H    -1.160000000     3.271000000     1.002000000
H    -0.912000000     4.681000000     1.496000000
O     2.194000000    -6.813000000     0.956000000
H     1.501000000    -6.180000000     0.768000000
H     2.981000000    -6.280000000     1.069000000
O     3.882000000    -1.794000000     1.231000000
H     4.683000000    -1.407000000     0.877000000
H     3.324000000    -1.932000000     0.465000000
O    -3.209000000     2.405000000    -4.300000000
H    -3.861000000     2.796000000    -4.881000000
H    -3.355000000     2.831000000    -3.455000000
O     1.195000000    -5.964000000    -2.259000000
H     0.785000000    -6.307000000    -3.053000000
H     0.560000000    -6.140000000    -1.565000000
O     2.684000000     4.846000000    -6.007000000
H     1.761000000     4.775000000    -6.253000000
H     2.817000000     4.144000000    -5.370000000
O    -5.419000000    -4.594000000     2.237000000
H    -4.873000000    -3.810000000     2.295000000
H    -4.814000000    -5.288000000     1.973000000
O    -1.838000000    -5.267000000     3.000000000
H    -1.190000000    -5.587000000     3.628000000
H    -1.397000000    -4.550000000     2.545000000
O     0.522000000     5.171000000    -3.231000000
H    -0.288000000     5.637000000    -3.022000000
H     0.231000000     4.356000000    -3.640000000
O     3.763000000    -1.200000000     3.947000000
H     4.634000000    -1.572000000     4.085000000
H     3.578000000    -1.359000000     3.021000000
O     1.398000000    -4.184000000     4.084000000
H     2.214000000    -4.064000000     3.599000000
H     0.758000000    -3.652000000     3.610000000
O     3.007000000     3.020000000     3.044000000
H     2.568000000     3.807000000     2.722000000
H     2.326000000     2.543000000     3.518000000
O    -0.349000000     6.228000000     0.945000000
H    -0.536000000     6.587000000     0.077000000
H    -0.373000000     6.986000000     1.528000000
O     0.380000000    -2.734000000    -5.744000000
H     0.476000000    -2.876000000    -4.802000000
H    -0.440000000    -2.247000000    -5.830000000
O    -3.402000000     5.138000000     0.521000000
H    -3.373000000     4.671000000     1.355000000
H    -3.423000000     6.064000000     0.765000000
O    -0.115000000    -5.278000000     6.490000000
H    -0.853000000    -4.670000000     6.453000000
H     0.497000000    -4.953000000     5.829000000
O     5.011000000     4.336000000    -2.037000000
H     5.610000000     4.751000000    -1.417000000
H     4.272000000     4.941000000    -2.098000000
O    -3.515000000     3.913000000    -2.043000000
H    -4.146000000     4.632000000    -2.019000000
H    -3.131000000     3.902000000    -1.167000000
O    -3.083000000    -3.820000000    -1.018000000
H    -3.737000000    -3.128000000    -1.110000000
H    -2.605000000    -3.593000000    -0.221000000
O     1.717000000     0.759000000    -4.747000000
H     0.955000000     1.135000000    -4.306000000
H     2.113000000     0.184000000    -4.093000000
O    -0.294000000    -6.164000000     0.067000000
H    -0.970000000    -6.840000000     0.115000000
H    -0.678000000    -5.410000000     0.515000000
O     5.480000000     3.920000000     1.451000000
H     4.678000000     4.236000000     1.868000000
H     6.185000000     4.236000000     2.017000000
O    -5.084000000    -4.935000000    -2.822000000
H    -5.647000000    -4.163000000    -2.762000000
H    -4.218000000    -4.620000000    -2.563000000
O    -1.749000000     1.555000000     3.154000000
H    -1.347000000     2.413000000     3.017000000
H    -1.010000000     0.964000000     3.297000000
O     2.101000000    -1.766000000     5.961000000
H     2.438000000    -2.592000000     6.306000000
H     2.751000000    -1.495000000     5.312000000
O     1.754000000     1.633000000     5.097000000
H     1.173000000     0.906000000     4.872000000
H     1.967000000     1.493000000     6.020000000
O    -3.217000000     1.533000000     0.336000000
H    -2.359000000     1.148000000     0.156000000
H    -3.773000000     0.787000000     0.560000000
O     3.742000000     2.863000000    -4.150000000
H     3.983000000     3.332000000    -3.351000000
H     3.336000000     2.054000000    -3.840000000
O     2.650000000    -2.613000000    -1.557000000
H     3.238000000    -3.194000000    -2.040000000
H     1.772000000    -2.908000000    -1.796000000
O    -5.031000000    -0.497000000     1.844000000
H    -5.170000000    -0.194000000     2.741000000
H    -4.597000000    -1.344000000     1.943000000
O     3.029000000     5.975000000    -2.192000000
H     3.055000000     6.573000000    -2.938000000
H     2.145000000     5.609000000    -2.207000000
O    -4.339000000    -0.130000000    -3.704000000
H    -3.768000000     0.633000000    -3.611000000
H    -5.193000000     0.237000000    -3.936000000
O     4.136000000    -4.505000000     1.962000000
H     4.379000000    -4.620000000     2.880000000
H     4.243000000    -3.567000000     1.801000000
O    -2.467000000    -1.407000000     5.478000000
H    -1.516000000    -1.345000000     5.388000000
H    -2.636000000    -2.342000000     5.592000000
O    -0.388000000     2.882000000    -4.668000000
H    -0.180000000     3.257000000    -5.524000000
H    -1.279000000     2.546000000    -4.764000000
O     0.355000000    -6.737000000     4.068000000
H     0.788000000    -5.886000000     3.991000000
H     1.062000000    -7.375000000     3.974000000
O     0.317000000    -3.119000000    -2.991000000
H    -0.409000000    -2.503000000    -2.893000000
H    -0.092000000    -3.982000000    -2.938000000
O    -3.481000000    -2.741000000     2.170000000
H    -3.078000000    -2.642000000     3.033000000
H    -2.750000000    -2.944000000     1.587000000
O    -2.322000000    -2.029000000    -4.022000000
H    -3.011000000    -1.468000000    -3.667000000
H    -2.393000000    -1.923000000    -4.971000000
