144
-2817.72909
O     0.559000000     3.976000000     3.953000000
H    -0.148000000     3.768000000     3.342000000
H     1.347000000     3.990000000     3.410000000
O     4.512000000    -2.428000000    -2.393000000
H     4.771000000    -3.338000000    -2.537000000
H     4.367000000    -2.367000000    -1.448000000
O    -5.807000000     4.042000000    -0.190000000
H    -6.211000000     3.185000000    -0.329000000
H    -6.431000000     4.665000000    -0.561000000
O    -5.244000000     0.358000000    -2.923000000
H    -4.539000000     0.248000000    -3.561000000
H    -4.895000000    -0.012000000    -2.113000000
O    -4.991000000    -0.863000000     2.377000000
H    -4.573000000    -0.387000000     3.094000000
H    -4.648000000    -0.452000000     1.583000000
O     1.030000000     5.098000000    -0.343000000
H     1.283000000     5.914000000    -0.776000000
H     0.400000000     4.695000000    -0.940000000
O    -8.109000000     2.596000000     1.436000000
H    -7.380000000     2.157000000     0.997000000
H    -7.958000000     2.436000000     2.368000000
O     6.370000000     3.974000000     3.370000000
H     6.348000000     4.350000000     2.490000000
H     5.758000000     3.239000000     3.332000000
O    -6.680000000     2.172000000    -4.581000000
H    -6.852000000     2.839000000    -3.916000000
H    -5.982000000     1.634000000    -4.206000000
O    -1.577000000     0.424000000    -5.106000000
H    -2.282000000     1.051000000    -4.944000000
H    -0.785000000     0.874000000    -4.814000000
O    -5.810000000    -2.766000000     0.250000000
H    -5.413000000    -2.198000000     0.911000000
H    -6.453000000    -2.209000000    -0.189000000
O    -6.325000000     1.277000000    -0.267000000
H    -6.548000000     1.049000000    -1.169000000
H    -5.450000000     0.911000000    -0.137000000
O    -1.098000000    -3.788000000    -0.431000000
H    -1.384000000    -3.104000000    -1.035000000
H    -1.266000000    -4.606000000    -0.899000000
O     1.117000000     1.736000000    -4.713000000
H     1.314000000     2.065000000    -3.836000000
H     1.839000000     1.142000000    -4.914000000
O     2.346000000    -3.928000000     1.805000000
H     1.930000000    -4.696000000     2.198000000
H     2.943000000    -3.607000000     2.481000000
O     6.657000000    -2.360000000     1.501000000
H     7.359000000    -2.198000000     2.132000000
H     6.402000000    -1.489000000     1.197000000
O     1.410000000     2.078000000    -2.170000000
H     1.059000000     1.286000000    -1.764000000
H     0.856000000     2.784000000    -1.836000000
O    -3.420000000     2.776000000     4.702000000
H    -2.964000000     2.974000000     3.884000000
H    -4.046000000     3.493000000     4.806000000
O     1.973000000     3.419000000     1.551000000
H     1.480000000     2.608000000     1.678000000
H     1.401000000     3.964000000     1.011000000
O     4.697000000     3.322000000     0.981000000
H     4.868000000     2.872000000     0.154000000
H     3.746000000     3.429000000     1.004000000
O    -3.261000000    -0.246000000     4.820000000
H    -3.444000000     0.693000000     4.853000000
H    -2.323000000    -0.301000000     4.636000000
O    -0.744000000    -2.682000000     1.958000000
H    -0.840000000    -3.455000000     1.402000000
H    -0.521000000    -1.976000000     1.351000000
O     6.591000000     0.431000000     1.165000000
H     6.223000000     1.272000000     0.895000000
H     7.080000000     0.629000000     1.964000000
O    -6.875000000    -3.655000000    -3.055000000
H    -5.969000000    -3.462000000    -3.295000000
H    -7.107000000    -2.971000000    -2.426000000
O    -2.219000000    -2.122000000    -4.718000000
H    -2.032000000    -1.209000000    -4.938000000
H    -1.546000000    -2.622000000    -5.180000000
O    -0.788000000    -0.540000000     4.372000000
H    -0.248000000    -1.315000000     4.216000000
H    -0.286000000    -0.021000000     5.000000000
O     2.944000000     1.047000000     4.646000000
H     3.169000000     1.973000000     4.737000000
H     3.691000000     0.581000000     5.021000000
O     4.169000000     2.720000000    -2.707000000
H     3.280000000     2.830000000    -2.367000000
H     4.093000000     2.021000000    -3.355000000
O    -7.988000000    -1.517000000    -1.345000000
H    -7.880000000    -0.804000000    -1.975000000
H    -8.619000000    -1.181000000    -0.709000000
O    -4.500000000    -2.327000000    -3.030000000
H    -3.786000000    -2.463000000    -3.654000000
H    -4.155000000    -1.688000000    -2.407000000
O    -4.468000000    -4.860000000    -1.307000000
H    -4.877000000    -4.266000000    -0.677000000
H    -4.291000000    -4.313000000    -2.072000000
O     0.391000000    -3.202000000    -5.162000000
H     0.011000000    -4.078000000    -5.096000000
H     0.905000000    -3.103000000    -4.361000000
O     7.310000000    -0.633000000    -1.838000000
H     7.234000000     0.304000000    -1.657000000
H     6.540000000    -0.837000000    -2.369000000
O    -6.780000000    -1.703000000     4.084000000
H    -6.995000000    -0.906000000     4.570000000
H    -6.212000000    -1.404000000     3.374000000
O    -1.440000000     3.993000000     1.989000000
H    -2.373000000     3.777000000     1.985000000
H    -1.411000000     4.935000000     1.820000000
O     6.374000000     1.972000000    -1.268000000
H     7.013000000     2.645000000    -1.032000000
H     5.852000000     2.372000000    -1.964000000
O    -2.477000000    -3.453000000     4.358000000
H    -2.019000000    -3.802000000     5.123000000
H    -2.020000000    -2.637000000     4.157000000
O     1.837000000    -3.346000000    -3.013000000
H     2.777000000    -3.450000000    -3.164000000
H     1.702000000    -3.659000000    -2.119000000
O    -1.126000000     4.004000000    -1.660000000
H    -2.045000000     4.223000000    -1.506000000
H    -1.029000000     4.029000000    -2.612000000
O     1.642000000    -4.392000000    -0.691000000
H     0.737000000    -4.113000000    -0.554000000
H     2.116000000    -4.049000000     0.066000000
O    -5.863000000    -1.424000000    -5.351000000
H    -5.755000000    -1.392000000    -4.400000000
H    -5.793000000    -2.353000000    -5.569000000
O    -3.590000000     5.375000000    -1.247000000
H    -4.295000000     4.833000000    -0.894000000
H    -3.572000000     6.144000000    -0.678000000
O     3.352000000    -1.803000000     3.512000000
H     2.409000000    -1.963000000     3.481000000
H     3.439000000    -0.857000000     3.392000000
O     1.097000000     0.504000000     6.410000000
H     1.797000000     0.500000000     5.757000000
H     1.393000000     1.125000000     7.075000000
O    -4.008000000     2.888000000     1.739000000
H    -4.625000000     3.363000000     1.181000000
H    -3.879000000     2.051000000     1.294000000
O     3.962000000     0.523000000    -4.358000000
H     3.361000000     0.099000000    -3.746000000
H     4.440000000    -0.200000000    -4.764000000
O     0.775000000    -2.610000000     4.215000000
H     0.217000000    -3.265000000     4.635000000
H     0.524000000    -2.640000000     3.291000000
O    -3.685000000     2.138000000    -4.928000000
H    -3.650000000     2.828000000    -4.266000000
H    -4.427000000     2.376000000    -5.484000000
