144
-2827.29438
O     3.805000000    -4.857000000     0.094000000
H     3.001000000    -4.753000000    -0.416000000
H     3.736000000    -5.733000000     0.473000000
O    -6.966000000     3.219000000    -0.933000000
H    -6.252000000     2.733000000    -1.346000000
H    -7.145000000     2.740000000    -0.124000000
O    -3.325000000     3.339000000     1.915000000
H    -2.404000000     3.090000000     1.832000000
H    -3.808000000     2.586000000     1.574000000
O    -8.061000000     1.165000000    -3.133000000
H    -8.151000000     0.379000000    -2.594000000
H    -7.318000000     1.633000000    -2.752000000
O    -4.067000000     4.839000000    -1.504000000
H    -3.187000000     4.745000000    -1.138000000
H    -4.285000000     3.966000000    -1.830000000
O     5.444000000    -3.186000000     2.030000000
H     4.757000000    -3.382000000     2.667000000
H     5.086000000    -3.483000000     1.193000000
O    -1.207000000    -0.777000000     5.414000000
H    -1.405000000     0.140000000     5.607000000
H    -0.309000000    -0.763000000     5.082000000
O     6.015000000     2.241000000     0.273000000
H     6.557000000     2.303000000    -0.513000000
H     5.396000000     2.967000000     0.195000000
O    -0.944000000     3.214000000     0.695000000
H    -0.681000000     2.354000000     0.367000000
H    -0.833000000     3.800000000    -0.053000000
O    -4.702000000    -3.899000000     4.206000000
H    -4.784000000    -4.622000000     3.584000000
H    -3.760000000    -3.815000000     4.354000000
O    -3.565000000    -3.339000000    -3.020000000
H    -2.832000000    -3.314000000    -2.405000000
H    -4.056000000    -2.537000000    -2.841000000
O    -1.835000000     1.666000000     5.723000000
H    -1.558000000     2.366000000     6.314000000
H    -2.460000000     2.086000000     5.131000000
O    -1.202000000     4.684000000    -1.680000000
H    -0.824000000     4.612000000    -2.557000000
H    -1.066000000     5.599000000    -1.435000000
O    -1.722000000    -3.431000000    -1.016000000
H    -1.928000000    -3.034000000    -0.170000000
H    -1.055000000    -4.089000000    -0.817000000
O    -0.113000000     3.465000000    -4.017000000
H    -0.666000000     2.702000000    -4.185000000
H     0.781000000     3.135000000    -4.099000000
O     7.472000000    -1.327000000    -1.101000000
H     8.036000000    -1.675000000    -1.792000000
H     6.668000000    -1.073000000    -1.554000000
O     0.444000000    -2.351000000    -2.104000000
H    -0.279000000    -2.557000000    -1.511000000
H     0.689000000    -1.454000000    -1.880000000
O    -1.516000000     1.385000000    -5.038000000
H    -1.567000000     0.478000000    -4.734000000
H    -1.445000000     1.315000000    -5.990000000
O    -3.037000000    -5.906000000     0.919000000
H    -3.703000000    -6.085000000     1.583000000
H    -2.763000000    -5.005000000     1.092000000
O     5.979000000     0.571000000     2.462000000
H     5.990000000     0.892000000     1.560000000
H     6.666000000    -0.096000000     2.487000000
O    -5.251000000    -3.797000000     0.738000000
H    -4.343000000    -3.520000000     0.618000000
H    -5.523000000    -3.378000000     1.555000000
O     1.135000000    -3.557000000     3.454000000
H     2.062000000    -3.536000000     3.690000000
H     0.703000000    -3.946000000     4.214000000
O     3.711000000    -3.346000000     4.093000000
H     3.747000000    -2.455000000     4.441000000
H     3.574000000    -3.898000000     4.864000000
O     5.494000000     1.994000000     4.998000000
H     5.609000000     1.884000000     4.054000000
H     6.371000000     1.869000000     5.362000000
O     2.649000000    -3.894000000    -2.746000000
H     2.144000000    -4.591000000    -2.327000000
H     2.056000000    -3.143000000    -2.758000000
O     5.899000000    -0.594000000    -3.224000000
H     6.090000000     0.314000000    -2.987000000
H     5.035000000    -0.557000000    -3.636000000
O     1.362000000    -0.919000000     4.568000000
H     2.057000000    -0.329000000     4.275000000
H     1.316000000    -1.591000000     3.887000000
O    -2.701000000    -3.181000000     1.778000000
H    -2.968000000    -2.279000000     1.952000000
H    -2.281000000    -3.468000000     2.589000000
O    -7.834000000     1.407000000     0.880000000
H    -7.612000000     0.513000000     0.622000000
H    -8.781000000     1.390000000     1.012000000
O     0.146000000    -4.333000000     1.130000000
H    -0.129000000    -5.134000000     1.577000000
H     0.664000000    -3.861000000     1.782000000
O    -6.298000000     1.920000000     4.315000000
H    -5.967000000     1.885000000     3.418000000
H    -7.122000000     2.403000000     4.247000000
O    -5.195000000     1.490000000     1.799000000
H    -6.086000000     1.290000000     1.513000000
H    -4.734000000     0.652000000     1.751000000
O     4.053000000    -0.423000000     4.419000000
H     4.530000000    -0.239000000     3.610000000
H     4.009000000     0.421000000     4.869000000
O    -8.089000000    -0.986000000    -1.596000000
H    -8.813000000    -1.484000000    -1.217000000
H    -7.414000000    -0.992000000    -0.917000000
O    -5.594000000    -1.218000000    -2.943000000
H    -6.537000000    -1.052000000    -2.975000000
H    -5.239000000    -0.485000000    -2.440000000
O     7.642000000    -1.960000000     1.438000000
H     6.799000000    -2.394000000     1.563000000
H     7.705000000    -1.826000000     0.492000000
O    -6.664000000    -2.466000000     2.684000000
H    -5.978000000    -2.670000000     3.319000000
H    -7.457000000    -2.367000000     3.211000000
O     3.290000000    -0.991000000    -3.738000000
H     2.979000000    -1.851000000    -3.457000000
H     2.926000000    -0.879000000    -4.616000000
O    -3.657000000     3.077000000    -4.022000000
H    -3.771000000     3.803000000    -4.635000000
H    -2.986000000     2.527000000    -4.425000000
O     3.277000000     4.251000000     2.873000000
H     3.695000000     4.327000000     2.015000000
H     2.363000000     4.490000000     2.717000000
O    -6.248000000    -0.811000000     0.523000000
H    -6.226000000    -1.562000000     1.116000000
H    -5.328000000    -0.629000000     0.332000000
O    -1.905000000    -3.358000000     4.229000000
H    -1.561000000    -2.646000000     4.768000000
H    -1.448000000    -4.138000000     4.542000000
O     0.652000000     5.032000000     2.447000000
H     0.120000000     4.363000000     2.018000000
H     0.923000000     5.614000000     1.737000000
O    -5.041000000     1.681000000    -2.255000000
H    -4.480000000     1.751000000    -3.027000000
H    -4.567000000     1.092000000    -1.668000000
O     6.445000000     2.211000000    -2.808000000
H     6.704000000     2.801000000    -3.516000000
H     7.269000000     1.968000000    -2.385000000
O    -6.149000000    -0.324000000     6.129000000
H    -5.962000000    -0.029000000     5.237000000
H    -6.337000000    -1.258000000     6.037000000
O    -1.108000000    -1.338000000    -4.346000000
H    -0.577000000    -2.086000000    -4.621000000
H    -1.228000000    -1.463000000    -3.405000000
O    -4.007000000    -0.405000000     4.063000000
H    -3.130000000    -0.405000000     4.448000000
H    -3.858000000    -0.534000000     3.126000000
