144
-2804.75808
O     5.860000000     2.923000000     1.892000000
H     6.121000000     2.003000000     1.865000000
H     6.682000000     3.408000000     1.823000000
O     3.810000000     3.091000000    -3.919000000
H     3.110000000     3.337000000    -4.525000000
H     3.581000000     3.527000000    -3.099000000
O    -6.836000000    -0.866000000    -2.577000000
H    -6.775000000    -1.153000000    -1.666000000
H    -7.772000000    -0.896000000    -2.776000000
O    -0.883000000     3.629000000     6.133000000
H    -0.318000000     3.497000000     5.372000000
H    -0.799000000     4.561000000     6.335000000
O    -3.788000000    -2.872000000    -4.102000000
H    -3.055000000    -2.768000000    -3.495000000
H    -4.451000000    -2.259000000    -3.784000000
O     2.858000000    -2.932000000    -0.740000000
H     3.070000000    -3.796000000    -1.091000000
H     3.500000000    -2.346000000    -1.141000000
O    -0.773000000    -0.588000000    -5.178000000
H    -0.557000000     0.316000000    -4.949000000
H    -0.997000000    -1.000000000    -4.344000000
O    -2.665000000    -7.902000000    -2.041000000
H    -3.304000000    -8.064000000    -2.735000000
H    -2.730000000    -6.963000000    -1.870000000
O    -5.305000000    -5.360000000    -3.569000000
H    -5.447000000    -5.051000000    -2.674000000
H    -5.013000000    -4.585000000    -4.047000000
O    -0.416000000    -0.967000000     7.422000000
H    -0.769000000    -1.007000000     6.533000000
H    -1.117000000    -0.572000000     7.940000000
O    -0.073000000    -3.752000000    -4.413000000
H    -0.859000000    -4.297000000    -4.366000000
H    -0.353000000    -2.900000000    -4.080000000
O    -2.485000000    -2.342000000    -6.445000000
H    -2.907000000    -2.540000000    -5.609000000
H    -1.796000000    -1.715000000    -6.223000000
O    -4.546000000    -2.433000000     0.146000000
H    -4.216000000    -2.272000000     1.031000000
H    -3.763000000    -2.434000000    -0.404000000
O    -5.554000000    -4.756000000    -0.863000000
H    -5.600000000    -3.807000000    -0.749000000
H    -4.963000000    -5.052000000    -0.170000000
O     3.999000000    -3.039000000     3.260000000
H     4.518000000    -3.810000000     3.487000000
H     3.391000000    -2.935000000     3.992000000
O     2.705000000     4.001000000    -1.400000000
H     2.549000000     4.945000000    -1.362000000
H     1.863000000     3.631000000    -1.666000000
O     3.837000000     2.548000000     4.321000000
H     4.645000000     2.864000000     4.727000000
H     4.086000000     2.347000000     3.419000000
O     0.564000000    -4.585000000    -1.379000000
H     0.361000000    -3.658000000    -1.253000000
H     1.332000000    -4.739000000    -0.829000000
O     3.948000000     4.918000000     1.731000000
H     4.656000000     4.484000000     2.207000000
H     4.360000000     5.689000000     1.340000000
O    -1.970000000     2.011000000    -0.933000000
H    -1.539000000     1.212000000    -0.629000000
H    -2.647000000     2.181000000    -0.279000000
O    -4.600000000    -0.423000000     3.706000000
H    -4.316000000    -1.259000000     3.338000000
H    -3.809000000     0.116000000     3.715000000
O    -0.953000000    -4.385000000     1.812000000
H    -0.305000000    -3.700000000     1.648000000
H    -1.125000000    -4.764000000     0.949000000
O     5.353000000     1.071000000    -2.610000000
H     5.587000000     1.648000000    -1.883000000
H     4.672000000     1.548000000    -3.085000000
O     1.192000000     4.986000000     2.700000000
H     2.000000000     4.640000000     2.322000000
H     0.682000000     5.283000000     1.946000000
O     5.212000000     3.137000000    -0.744000000
H     5.527000000     2.885000000     0.124000000
H     4.290000000     3.357000000    -0.609000000
O    -0.154000000    -3.083000000     4.703000000
H    -0.412000000    -2.162000000     4.726000000
H     0.232000000    -3.202000000     3.835000000
O     0.155000000     3.595000000    -2.137000000
H    -0.366000000     4.352000000    -2.407000000
H    -0.438000000     3.079000000    -1.591000000
O    -0.763000000    -0.502000000     4.595000000
H    -0.079000000    -0.176000000     4.010000000
H    -1.541000000     0.004000000     4.359000000
O     2.405000000     0.689000000    -5.586000000
H     1.663000000     1.203000000    -5.267000000
H     2.629000000     0.113000000    -4.855000000
O    -7.031000000    -1.499000000     0.369000000
H    -6.121000000    -1.783000000     0.285000000
H    -7.004000000    -0.796000000     1.018000000
O     4.941000000    -1.467000000    -1.363000000
H     5.387000000    -0.626000000    -1.464000000
H     5.434000000    -1.919000000    -0.678000000
O    -2.989000000     1.925000000    -3.552000000
H    -3.340000000     2.767000000    -3.843000000
H    -2.817000000     2.047000000    -2.618000000
O    -2.466000000    -5.256000000    -0.654000000
H    -3.241000000    -5.112000000    -0.111000000
H    -2.322000000    -4.419000000    -1.095000000
O     2.562000000    -3.554000000    -3.624000000
H     3.121000000    -4.132000000    -3.106000000
H     1.794000000    -4.086000000    -3.833000000
O     1.524000000     6.454000000     5.193000000
H     1.480000000     6.050000000     4.326000000
H     1.828000000     7.346000000     5.027000000
O    -4.367000000    -5.977000000     1.134000000
H    -4.088000000    -5.735000000     2.018000000
H    -5.019000000    -6.665000000     1.269000000
O    -2.500000000    -5.515000000    -5.258000000
H    -2.803000000    -6.260000000    -4.738000000
H    -3.167000000    -5.409000000    -5.936000000
O     0.750000000     2.690000000     4.332000000
H     0.853000000     3.453000000     3.763000000
H     1.632000000     2.329000000     4.412000000
O    -3.479000000    -2.816000000     2.899000000
H    -3.805000000    -3.429000000     3.558000000
H    -2.624000000    -3.166000000     2.649000000
O     0.362000000    -3.601000000    -7.245000000
H     0.599000000    -3.522000000    -6.321000000
H    -0.327000000    -4.265000000    -7.260000000
O    -2.572000000     1.369000000     3.902000000
H    -2.313000000     2.065000000     4.507000000
H    -2.751000000     1.822000000     3.079000000
O    -4.104000000     2.646000000     0.931000000
H    -4.904000000     3.138000000     0.746000000
H    -3.578000000     3.235000000     1.471000000
O     2.677000000    -0.779000000     5.425000000
H     3.300000000    -0.504000000     6.099000000
H     2.458000000    -1.682000000     5.655000000
O    -3.550000000     0.543000000    -5.862000000
H    -3.402000000     1.027000000    -5.049000000
H    -3.080000000    -0.282000000    -5.737000000
O     1.110000000    -2.483000000     1.504000000
H     0.746000000    -1.608000000     1.364000000
H     1.848000000    -2.535000000     0.897000000
O     0.117000000    -0.439000000    -7.908000000
H     1.065000000    -0.324000000    -7.972000000
H    -0.043000000    -0.594000000    -6.977000000
O     3.155000000    -0.996000000    -3.775000000
H     2.812000000    -1.883000000    -3.888000000
H     3.739000000    -1.060000000    -3.019000000
O     0.063000000     1.878000000    -4.685000000
H    -0.610000000     2.441000000    -5.068000000
H     0.456000000     2.411000000    -3.994000000
