144
-2805.53559
O    -6.222000000     0.689000000     3.301000000
H    -6.454000000     1.310000000     3.991000000
H    -5.420000000     0.271000000     3.616000000
O     3.292000000     4.209000000     3.278000000
H     2.723000000     4.416000000     2.536000000
H     4.062000000     3.800000000     2.882000000
O     5.469000000     3.343000000     1.546000000
H     5.387000000     3.406000000     0.595000000
H     6.090000000     2.628000000     1.686000000
O    -4.159000000     0.886000000    -1.717000000
H    -3.507000000     0.198000000    -1.583000000
H    -4.716000000     0.842000000    -0.940000000
O    -4.092000000    -2.979000000    -3.772000000
H    -3.574000000    -2.399000000    -3.214000000
H    -4.596000000    -3.514000000    -3.159000000
O     3.260000000    -4.227000000     0.120000000
H     3.992000000    -4.706000000    -0.269000000
H     3.661000000    -3.447000000     0.503000000
O    -0.625000000     0.593000000    -4.667000000
H    -0.100000000     1.220000000    -4.169000000
H    -1.101000000     0.097000000    -4.001000000
O    -5.865000000    -4.319000000    -2.374000000
H    -6.771000000    -4.586000000    -2.531000000
H    -5.642000000    -4.713000000    -1.531000000
O     1.365000000     1.238000000     6.598000000
H     1.602000000     2.093000000     6.239000000
H     0.411000000     1.204000000     6.526000000
O     0.053000000    -3.212000000    -4.122000000
H    -0.507000000    -3.902000000    -4.476000000
H    -0.555000000    -2.593000000    -3.717000000
O    -3.082000000    -1.557000000    -5.759000000
H    -2.455000000    -0.944000000    -5.375000000
H    -3.373000000    -2.094000000    -5.023000000
O    -4.776000000    -2.228000000     0.495000000
H    -4.229000000    -2.553000000     1.210000000
H    -4.228000000    -2.316000000    -0.285000000
O    -6.953000000    -3.868000000     1.011000000
H    -6.288000000    -3.514000000     0.420000000
H    -6.802000000    -3.414000000     1.841000000
O     3.854000000    -1.967000000     2.708000000
H     3.446000000    -2.552000000     3.346000000
H     4.794000000    -2.070000000     2.855000000
O     1.881000000     3.696000000     5.467000000
H     2.442000000     3.766000000     4.694000000
H     1.127000000     4.251000000     5.267000000
O    -6.316000000     2.931000000    -0.118000000
H    -6.278000000     3.597000000     0.569000000
H    -5.425000000     2.584000000    -0.164000000
O     0.473000000    -3.882000000    -0.694000000
H     0.650000000    -3.467000000    -1.538000000
H     1.331000000    -3.949000000    -0.275000000
O     5.473000000     6.064000000     0.815000000
H     5.302000000     5.271000000     1.322000000
H     6.123000000     6.542000000     1.330000000
O     2.030000000     5.099000000     0.900000000
H     2.598000000     5.752000000     0.489000000
H     1.284000000     5.023000000     0.306000000
O    -1.366000000     3.180000000    -0.228000000
H    -1.286000000     2.231000000    -0.129000000
H    -1.752000000     3.475000000     0.597000000
O    -4.134000000    -0.783000000     4.222000000
H    -4.195000000    -1.486000000     3.575000000
H    -3.330000000    -0.970000000     4.705000000
O    -0.763000000    -2.432000000     2.251000000
H    -0.536000000    -1.557000000     2.564000000
H     0.053000000    -2.928000000     2.313000000
O    -5.533000000     1.742000000    -4.069000000
H    -5.044000000     1.756000000    -3.247000000
H    -6.381000000     1.362000000    -3.836000000
O    -2.966000000    -2.389000000    -8.266000000
H    -3.075000000    -2.264000000    -7.323000000
H    -3.399000000    -3.223000000    -8.449000000
O     0.322000000     6.605000000     2.458000000
H     0.778000000     6.022000000     1.851000000
H     0.043000000     7.343000000     1.916000000
O     5.248000000     3.655000000    -1.126000000
H     4.733000000     4.291000000    -1.621000000
H     5.694000000     3.135000000    -1.794000000
O    -1.252000000    -0.531000000     5.117000000
H    -0.436000000    -0.660000000     4.634000000
H    -1.313000000     0.417000000     5.236000000
O     0.371000000     4.813000000    -1.212000000
H    -0.043000000     5.673000000    -1.287000000
H    -0.357000000     4.208000000    -1.067000000
O    -1.002000000     2.147000000     5.036000000
H    -0.665000000     3.017000000     5.249000000
H    -1.678000000     2.307000000     4.378000000
O     2.702000000     0.780000000    -4.888000000
H     2.094000000     1.243000000    -4.311000000
H     3.200000000     0.209000000    -4.303000000
O    -5.565000000     0.181000000     0.672000000
H    -5.415000000    -0.764000000     0.716000000
H    -5.932000000     0.405000000     1.527000000
O     4.966000000    -0.097000000     6.180000000
H     5.644000000    -0.114000000     5.504000000
H     4.596000000     0.784000000     6.126000000
O     6.578000000    -2.241000000    -1.531000000
H     6.292000000    -1.452000000    -1.071000000
H     7.527000000    -2.258000000    -1.409000000
O     6.236000000     0.335000000    -0.664000000
H     5.927000000     1.004000000    -1.275000000
H     6.653000000     0.829000000     0.042000000
O    -2.322000000    -4.456000000    -0.532000000
H    -1.370000000    -4.405000000    -0.446000000
H    -2.596000000    -3.554000000    -0.702000000
O     2.684000000    -3.309000000    -3.607000000
H     2.803000000    -4.258000000    -3.652000000
H     1.775000000    -3.168000000    -3.869000000
O    -4.333000000    -6.243000000    -0.392000000
H    -3.799000000    -5.505000000    -0.686000000
H    -4.314000000    -6.860000000    -1.124000000
O    -1.227000000    -5.201000000    -5.441000000
H    -1.651000000    -5.831000000    -4.857000000
H    -1.863000000    -5.058000000    -6.141000000
O    -0.285000000     5.341000000     4.813000000
H    -0.111000000     5.696000000     3.941000000
H    -1.178000000     5.622000000     5.012000000
O    -3.445000000    -3.056000000     2.590000000
H    -3.419000000    -4.002000000     2.737000000
H    -2.531000000    -2.778000000     2.653000000
O     0.212000000    -1.395000000    -6.408000000
H     0.156000000    -2.092000000    -5.754000000
H    -0.073000000    -0.608000000    -5.944000000
O    -3.174000000     2.700000000     3.232000000
H    -4.029000000     2.438000000     2.890000000
H    -3.003000000     3.549000000     2.826000000
O    -2.910000000     4.919000000     1.302000000
H    -3.865000000     4.966000000     1.360000000
H    -2.632000000     5.828000000     1.191000000
O    -6.092000000    -1.207000000    -3.943000000
H    -5.137000000    -1.248000000    -3.991000000
H    -6.300000000    -1.511000000    -3.059000000
O    -1.676000000     3.092000000    -5.648000000
H    -1.775000000     3.462000000    -4.771000000
H    -1.566000000     2.153000000    -5.500000000
O     1.191000000    -1.467000000     3.933000000
H     1.793000000    -0.812000000     3.580000000
H     1.685000000    -1.892000000     4.635000000
O     3.892000000    -0.888000000    -3.218000000
H     3.417000000    -1.717000000    -3.264000000
H     4.500000000    -1.001000000    -2.487000000
O     0.838000000     2.412000000    -3.171000000
H     1.033000000     3.279000000    -3.529000000
H     1.042000000     2.487000000    -2.239000000
