144
-2810.11584
O    -2.129000000     4.134000000    -1.350000000
H    -2.297000000     3.823000000    -0.460000000
H    -2.324000000     5.070000000    -1.317000000
O     7.308000000    -5.037000000    -1.708000000
H     6.496000000    -4.760000000    -2.132000000
H     7.075000000    -5.845000000    -1.250000000
O    -3.832000000    -0.667000000    -3.442000000
H    -3.111000000    -0.037000000    -3.423000000
H    -4.155000000    -0.688000000    -2.541000000
O    -1.881000000     0.874000000    -3.124000000
H    -1.905000000     1.501000000    -2.402000000
H    -1.025000000     1.008000000    -3.530000000
O     2.911000000     2.438000000     5.804000000
H     2.982000000     2.195000000     4.881000000
H     3.579000000     1.911000000     6.243000000
O    -6.298000000     4.448000000    -1.883000000
H    -5.746000000     3.709000000    -1.626000000
H    -5.759000000     4.949000000    -2.495000000
O    -4.833000000     4.492000000     4.043000000
H    -4.811000000     4.251000000     3.117000000
H    -5.244000000     5.356000000     4.056000000
O    -5.244000000     1.799000000    -1.399000000
H    -5.319000000     1.671000000    -2.345000000
H    -4.879000000     0.976000000    -1.074000000
O     3.238000000     1.352000000    -4.429000000
H     3.576000000     1.138000000    -3.559000000
H     3.983000000     1.743000000    -4.886000000
O    -2.762000000    -3.092000000    -2.910000000
H    -3.567000000    -3.566000000    -2.703000000
H    -3.052000000    -2.204000000    -3.118000000
O     5.664000000     1.877000000     0.946000000
H     5.642000000     2.819000000     1.117000000
H     6.040000000     1.801000000     0.069000000
O     1.477000000     4.168000000     3.117000000
H     0.939000000     3.705000000     3.759000000
H     2.067000000     3.498000000     2.771000000
O    -2.877000000     3.747000000     5.867000000
H    -3.218000000     4.017000000     6.720000000
H    -3.515000000     4.081000000     5.237000000
O    -3.826000000     0.375000000     5.322000000
H    -4.400000000     1.113000000     5.120000000
H    -4.162000000    -0.344000000     4.786000000
O     1.204000000    -6.145000000    -0.105000000
H     0.731000000    -5.488000000    -0.616000000
H     2.078000000    -5.774000000     0.011000000
O     5.597000000    -4.274000000     1.849000000
H     6.402000000    -4.731000000     1.604000000
H     5.859000000    -3.695000000     2.565000000
O     3.802000000     4.302000000    -0.746000000
H     3.125000000     3.633000000    -0.847000000
H     4.312000000     4.250000000    -1.555000000
O    -1.644000000    -5.838000000    -2.768000000
H    -1.459000000    -4.954000000    -2.450000000
H    -2.020000000    -5.705000000    -3.639000000
O     3.896000000    -0.420000000     3.250000000
H     4.077000000    -0.780000000     2.382000000
H     3.664000000    -1.181000000     3.782000000
O     4.060000000    -4.287000000    -2.904000000
H     3.850000000    -4.348000000    -1.973000000
H     3.216000000    -4.140000000    -3.331000000
O     5.217000000    -1.402000000    -1.870000000
H     4.505000000    -2.004000000    -1.651000000
H     4.843000000    -0.531000000    -1.736000000
O     3.864000000    -4.777000000    -0.229000000
H     4.377000000    -4.749000000     0.579000000
H     3.257000000    -4.041000000    -0.153000000
O    -0.256000000     3.676000000    -3.199000000
H    -0.499000000     3.165000000    -3.970000000
H    -1.064000000     3.741000000    -2.690000000
O    -6.777000000    -1.206000000     1.163000000
H    -7.476000000    -1.706000000     1.584000000
H    -6.257000000    -0.863000000     1.889000000
O     0.218000000     6.115000000     5.522000000
H     0.847000000     5.686000000     6.102000000
H     0.033000000     5.464000000     4.846000000
O     0.337000000     5.501000000     1.047000000
H     1.157000000     5.634000000     0.572000000
H     0.553000000     4.859000000     1.723000000
O    -1.647000000    -2.345000000    -5.560000000
H    -2.189000000    -2.652000000    -4.833000000
H    -0.821000000    -2.087000000    -5.151000000
O    -4.933000000     3.558000000     1.247000000
H    -5.318000000     4.418000000     1.082000000
H    -4.837000000     3.167000000     0.378000000
O    -3.051000000    -1.427000000     2.458000000
H    -2.117000000    -1.275000000     2.314000000
H    -3.241000000    -2.229000000     1.973000000
O     7.793000000    -1.067000000    -0.934000000
H     8.316000000    -0.676000000    -1.634000000
H     6.932000000    -1.209000000    -1.329000000
O     4.545000000    -1.793000000     1.084000000
H     3.860000000    -1.774000000     0.416000000
H     5.061000000    -2.572000000     0.876000000
O    -0.327000000     3.099000000     4.744000000
H    -0.153000000     2.182000000     4.530000000
H    -1.269000000     3.132000000     4.909000000
O     6.056000000    -0.834000000    -4.937000000
H     5.772000000    -1.245000000    -4.121000000
H     5.800000000    -1.455000000    -5.620000000
O     0.324000000     1.237000000    -4.520000000
H     1.221000000     1.546000000    -4.391000000
H     0.392000000     0.283000000    -4.481000000
O     1.317000000    -5.107000000    -3.297000000
H     0.435000000    -5.480000000    -3.307000000
H     1.198000000    -4.219000000    -2.961000000
O    -2.671000000     0.984000000    -5.855000000
H    -2.939000000     0.717000000    -4.976000000
H    -3.425000000     1.464000000    -6.199000000
O     3.530000000     0.953000000    -1.247000000
H     3.016000000     1.620000000    -1.702000000
H     3.236000000     1.002000000    -0.338000000
O    -0.971000000     0.301000000     4.691000000
H    -0.834000000    -0.480000000     4.155000000
H    -1.905000000     0.287000000     4.900000000
O    -4.536000000    -0.720000000    -0.446000000
H    -3.720000000    -0.932000000     0.007000000
H    -5.215000000    -1.164000000     0.062000000
O    -0.185000000    -3.892000000    -0.847000000
H    -0.816000000    -3.179000000    -0.750000000
H     0.452000000    -3.563000000    -1.481000000
O    -5.664000000     1.237000000     2.467000000
H    -5.589000000     1.502000000     3.384000000
H    -5.356000000     1.996000000     1.972000000
O     2.429000000    -4.773000000    -5.850000000
H     2.245000000    -5.132000000    -4.982000000
H     1.565000000    -4.637000000    -6.240000000
O     1.563000000     2.901000000    -1.396000000
H     0.863000000     2.386000000    -0.994000000
H     1.188000000     3.213000000    -2.219000000
O     0.816000000    -1.450000000    -4.674000000
H     1.664000000    -1.393000000    -5.115000000
H     0.992000000    -1.955000000    -3.880000000
O    -2.329000000     5.561000000     0.970000000
H    -2.579000000     6.107000000     1.715000000
H    -1.372000000     5.564000000     0.982000000
O     3.375000000     2.117000000     2.691000000
H     3.981000000     2.147000000     1.951000000
H     3.448000000     1.222000000     3.024000000
O    -4.387000000     6.988000000    -0.106000000
H    -4.074000000     7.861000000     0.133000000
H    -3.593000000     6.458000000    -0.173000000
O    -0.413000000    -1.968000000     2.947000000
H     0.438000000    -1.808000000     2.540000000
H    -0.651000000    -2.851000000     2.664000000
