144
-2794.13708
O    -3.830000000    -4.731000000    -0.164000000
H    -4.761000000    -4.573000000    -0.319000000
H    -3.392000000    -4.346000000    -0.923000000
O     1.519000000    -1.310000000     5.365000000
H     0.763000000    -1.820000000     5.076000000
H     2.105000000    -1.298000000     4.608000000
O    -5.111000000     4.913000000     0.102000000
H    -5.737000000     4.195000000     0.000000000
H    -5.136000000     5.373000000    -0.737000000
O     0.666000000    -5.117000000     2.734000000
H     0.935000000    -5.972000000     2.398000000
H     1.057000000    -4.488000000     2.128000000
O     2.994000000    -7.760000000     3.342000000
H     3.288000000    -6.973000000     2.884000000
H     3.243000000    -7.613000000     4.255000000
O    -2.953000000     2.485000000    -3.103000000
H    -2.561000000     3.359000000    -3.105000000
H    -2.427000000     1.985000000    -3.726000000
O    -1.974000000     5.113000000    -3.139000000
H    -2.493000000     5.504000000    -3.842000000
H    -2.041000000     5.737000000    -2.416000000
O    -0.318000000     0.663000000     6.658000000
H    -0.868000000     0.857000000     5.899000000
H     0.267000000    -0.032000000     6.357000000
O    -2.338000000     7.631000000     1.358000000
H    -1.396000000     7.461000000     1.332000000
H    -2.408000000     8.584000000     1.411000000
O    -0.827000000    -2.199000000     4.090000000
H    -1.085000000    -2.916000000     3.511000000
H    -1.218000000    -1.419000000     3.696000000
O     2.049000000    -6.310000000    -2.666000000
H     1.135000000    -6.347000000    -2.945000000
H     2.550000000    -6.330000000    -3.482000000
O    -4.006000000    -0.464000000    -1.624000000
H    -3.836000000    -0.390000000    -0.685000000
H    -3.350000000     0.101000000    -2.032000000
O     2.852000000     4.018000000     2.321000000
H     3.252000000     4.887000000     2.301000000
H     3.225000000     3.565000000     1.564000000
O     0.414000000     7.280000000     1.794000000
H     0.839000000     6.562000000     2.262000000
H     0.432000000     8.012000000     2.411000000
O     0.498000000    -4.567000000     5.711000000
H    -0.426000000    -4.758000000     5.552000000
H     0.913000000    -4.662000000     4.854000000
O    -6.509000000     2.788000000    -0.283000000
H    -7.359000000     3.086000000     0.043000000
H    -6.303000000     2.022000000     0.252000000
O    -0.100000000    -6.651000000    -0.255000000
H     0.417000000    -5.854000000    -0.140000000
H    -0.461000000    -6.577000000    -1.139000000
O     2.933000000     5.959000000    -2.332000000
H     2.437000000     6.714000000    -2.016000000
H     3.104000000     6.153000000    -3.253000000
O    -3.360000000    -3.256000000    -2.571000000
H    -3.012000000    -3.459000000    -3.439000000
H    -3.520000000    -2.312000000    -2.592000000
O    -2.664000000    -0.825000000     0.833000000
H    -2.603000000    -1.748000000     1.081000000
H    -1.860000000    -0.657000000     0.341000000
O     2.601000000    -0.079000000     7.497000000
H     1.936000000     0.295000000     8.074000000
H     2.112000000    -0.387000000     6.734000000
O     3.216000000    -4.983000000    -0.448000000
H     2.485000000    -4.397000000    -0.251000000
H     3.016000000    -5.332000000    -1.316000000
O    -0.316000000    -8.130000000     1.881000000
H    -1.273000000    -8.142000000     1.914000000
H    -0.111000000    -7.635000000     1.088000000
O     3.896000000     0.107000000    -2.622000000
H     4.846000000     0.052000000    -2.522000000
H     3.557000000    -0.612000000    -2.089000000
O     3.594000000    -2.126000000     3.298000000
H     4.376000000    -2.245000000     2.760000000
H     2.881000000    -2.481000000     2.767000000
O     0.088000000     3.778000000    -4.330000000
H     0.558000000     3.255000000    -3.681000000
H    -0.518000000     4.311000000    -3.816000000
O    -3.272000000     5.280000000     2.086000000
H    -2.949000000     6.108000000     1.729000000
H    -3.922000000     4.983000000     1.449000000
O    -1.398000000     1.424000000    -5.047000000
H    -0.778000000     2.140000000    -4.909000000
H    -0.922000000     0.796000000    -5.590000000
O     5.832000000    -3.826000000    -0.305000000
H     6.288000000    -4.360000000     0.346000000
H     4.935000000    -4.160000000    -0.303000000
O     1.618000000    -8.701000000    -1.066000000
H     0.812000000    -9.195000000    -0.914000000
H     1.330000000    -7.791000000    -1.145000000
O     4.341000000    -5.976000000     2.081000000
H     3.915000000    -5.934000000     1.225000000
H     5.236000000    -5.678000000     1.918000000
O     3.927000000    -1.189000000    -0.100000000
H     4.609000000    -1.849000000    -0.220000000
H     3.197000000    -1.667000000     0.293000000
O    -4.470000000    -0.749000000     2.896000000
H    -4.192000000    -1.357000000     3.581000000
H    -3.712000000    -0.680000000     2.315000000
O     0.283000000    -3.699000000    -3.031000000
H    -0.376000000    -4.347000000    -3.281000000
H     0.444000000    -3.867000000    -2.103000000
O     4.895000000     1.084000000     3.613000000
H     5.543000000     1.345000000     4.268000000
H     4.828000000     0.134000000     3.709000000
O    -4.328000000     1.266000000    -5.847000000
H    -4.911000000     2.017000000    -5.736000000
H    -3.448000000     1.632000000    -5.760000000
O     3.671000000     2.009000000     0.017000000
H     3.669000000     1.062000000    -0.126000000
H     2.957000000     2.335000000    -0.532000000
O    -3.886000000     2.142000000     1.531000000
H    -3.115000000     2.474000000     1.991000000
H    -3.530000000     1.657000000     0.786000000
O    -1.903000000    -3.503000000     1.636000000
H    -2.657000000    -4.003000000     1.323000000
H    -1.155000000    -4.083000000     1.493000000
O    -0.935000000    -6.543000000    -3.019000000
H    -1.854000000    -6.409000000    -3.250000000
H    -0.648000000    -7.261000000    -3.583000000
O     0.042000000    -1.658000000    -5.107000000
H    -0.092000000    -1.032000000    -4.395000000
H     0.110000000    -2.507000000    -4.670000000
O    -1.651000000    -5.656000000     4.262000000
H    -2.417000000    -5.806000000     3.709000000
H    -0.921000000    -5.585000000     3.646000000
O     2.224000000     3.392000000    -1.690000000
H     2.888000000     3.805000000    -2.242000000
H     1.781000000     4.123000000    -1.260000000
O    -0.629000000     6.102000000    -5.767000000
H    -0.376000000     6.767000000    -5.127000000
H    -0.462000000     5.269000000    -5.325000000
O     1.557000000     1.275000000    -3.390000000
H     1.640000000     1.980000000    -2.747000000
H     2.238000000     0.647000000    -3.146000000
O     2.727000000     2.945000000     4.814000000
H     2.727000000     3.466000000     4.011000000
H     3.353000000     2.241000000     4.643000000
O    -5.479000000     3.551000000    -2.824000000
H    -4.674000000     3.034000000    -2.797000000
H    -5.933000000     3.330000000    -2.011000000
O    -2.057000000     3.128000000     3.393000000
H    -2.345000000     3.821000000     2.799000000
H    -1.481000000     3.571000000     4.016000000
