144
-2808.36176
O    -4.390000000     3.065000000    -1.567000000
H    -4.118000000     3.746000000    -0.952000000
H    -4.981000000     2.507000000    -1.061000000
O    -2.930000000     2.163000000    -3.723000000
H    -3.456000000     2.483000000    -2.991000000
H    -2.034000000     2.419000000    -3.505000000
O     1.256000000    -5.371000000     4.891000000
H     2.088000000    -5.207000000     4.447000000
H     1.335000000    -6.264000000     5.227000000
O    -0.803000000    -3.384000000    -6.606000000
H     0.014000000    -3.398000000    -6.108000000
H    -1.364000000    -4.020000000    -6.161000000
O     3.042000000     1.467000000     3.953000000
H     3.662000000     1.536000000     3.227000000
H     3.572000000     1.171000000     4.693000000
O    -2.965000000     0.832000000     1.198000000
H    -2.032000000     0.644000000     1.098000000
H    -2.994000000     1.728000000     1.534000000
O    -4.566000000    -0.829000000    -0.083000000
H    -4.487000000    -0.695000000    -1.027000000
H    -3.930000000    -0.223000000     0.299000000
O    -1.808000000     2.357000000     5.968000000
H    -1.048000000     2.284000000     5.391000000
H    -2.224000000     1.496000000     5.926000000
O     2.477000000     5.927000000     1.742000000
H     1.834000000     5.888000000     2.450000000
H     3.206000000     6.428000000     2.108000000
O    -3.684000000    -4.513000000     4.453000000
H    -4.055000000    -3.660000000     4.677000000
H    -2.765000000    -4.329000000     4.255000000
O     2.415000000    -7.066000000     1.757000000
H     1.597000000    -7.321000000     2.185000000
H     2.685000000    -7.845000000     1.272000000
O    -2.936000000    -3.602000000    -2.244000000
H    -3.624000000    -4.234000000    -2.039000000
H    -2.223000000    -3.819000000    -1.643000000
O     0.566000000     2.288000000    -4.866000000
H     0.164000000     2.668000000    -5.647000000
H     0.398000000     2.928000000    -4.175000000
O     2.937000000     3.982000000    -2.137000000
H     3.011000000     4.857000000    -2.518000000
H     1.995000000     3.812000000    -2.107000000
O    -4.820000000    -5.802000000     1.352000000
H    -3.919000000    -5.572000000     1.581000000
H    -5.019000000    -6.563000000     1.898000000
O    -0.650000000    -6.470000000    -0.733000000
H     0.065000000    -6.703000000    -1.325000000
H    -0.580000000    -5.520000000    -0.637000000
O     2.619000000    -7.574000000    -1.440000000
H     2.538000000    -6.702000000    -1.053000000
H     2.660000000    -8.167000000    -0.690000000
O     4.381000000     4.789000000     0.315000000
H     3.898000000     4.200000000    -0.266000000
H     3.701000000     5.277000000     0.780000000
O    -2.083000000    -5.548000000     1.604000000
H    -1.474000000    -4.810000000     1.629000000
H    -1.819000000    -6.052000000     0.835000000
O     4.683000000    -5.135000000     2.952000000
H     4.598000000    -5.145000000     3.905000000
H     3.807000000    -4.914000000     2.635000000
O    -1.006000000    -6.786000000    -4.816000000
H    -0.597000000    -6.784000000    -3.951000000
H    -1.607000000    -6.041000000    -4.799000000
O     1.583000000    -4.000000000    -2.439000000
H     0.933000000    -3.671000000    -1.819000000
H     2.382000000    -4.095000000    -1.920000000
O     1.594000000    -0.066000000    -5.256000000
H     1.243000000     0.808000000    -5.089000000
H     0.889000000    -0.524000000    -5.714000000
O    -2.359000000    -0.507000000     5.927000000
H    -2.777000000    -0.926000000     6.680000000
H    -1.544000000    -0.993000000     5.805000000
O     0.242000000    -1.651000000     5.382000000
H    -0.279000000    -2.406000000     5.109000000
H     1.033000000    -1.699000000     4.845000000
O     4.018000000    -0.694000000    -4.502000000
H     3.129000000    -0.363000000    -4.632000000
H     4.535000000     0.084000000    -4.294000000
O     0.438000000     2.353000000     4.004000000
H     0.810000000     3.058000000     4.535000000
H     1.167000000     1.747000000     3.868000000
O    -0.246000000    -7.890000000     2.798000000
H    -0.706000000    -8.514000000     2.237000000
H    -0.752000000    -7.081000000     2.723000000
O     1.811000000     7.875000000    -0.221000000
H     1.919000000     7.361000000     0.579000000
H     2.427000000     8.601000000    -0.124000000
O     3.416000000     2.825000000    -5.401000000
H     3.029000000     3.663000000    -5.653000000
H     2.667000000     2.274000000    -5.174000000
O    -4.187000000     0.795000000     4.467000000
H    -3.886000000     0.793000000     3.558000000
H    -3.505000000     0.324000000     4.946000000
O    -0.849000000    -3.799000000     4.118000000
H    -0.286000000    -4.545000000     4.323000000
H    -0.712000000    -3.646000000     3.183000000
O     3.851000000    -4.696000000    -0.519000000
H     3.316000000    -4.451000000     0.236000000
H     4.573000000    -5.202000000    -0.146000000
O     2.827000000    -1.930000000     4.277000000
H     3.177000000    -2.030000000     5.162000000
H     3.333000000    -1.211000000     3.900000000
O    -4.085000000    -1.096000000    -2.946000000
H    -4.020000000    -0.778000000    -3.846000000
H    -3.365000000    -1.721000000    -2.860000000
O    -0.517000000    -0.805000000    -6.690000000
H    -0.407000000    -1.610000000    -7.197000000
H    -1.331000000    -0.937000000    -6.205000000
O     1.149000000     0.400000000     6.861000000
H     1.620000000    -0.368000000     7.184000000
H     0.583000000     0.060000000     6.168000000
O    -3.808000000     4.427000000     0.704000000
H    -3.892000000     5.356000000     0.920000000
H    -3.656000000     3.998000000     1.545000000
O     3.469000000    -0.860000000    -0.143000000
H     3.576000000     0.090000000    -0.097000000
H     2.544000000    -0.987000000    -0.357000000
O     1.984000000     6.618000000    -2.697000000
H     1.716000000     6.905000000    -1.824000000
H     2.192000000     7.428000000    -3.162000000
O    -2.624000000    -4.517000000    -4.834000000
H    -3.539000000    -4.699000000    -5.048000000
H    -2.652000000    -4.166000000    -3.943000000
O     0.082000000     4.566000000    -3.128000000
H     0.450000000     5.370000000    -3.493000000
H    -0.324000000     4.840000000    -2.306000000
O     4.592000000     1.960000000    -0.991000000
H     4.951000000     1.683000000    -1.835000000
H     4.018000000     2.696000000    -1.205000000
O     1.645000000    -4.083000000    -5.230000000
H     2.158000000    -4.870000000    -5.411000000
H     1.398000000    -4.164000000    -4.309000000
O    -2.315000000     3.255000000     2.612000000
H    -2.433000000     4.022000000     3.173000000
H    -1.557000000     2.802000000     2.983000000
O    -0.788000000     7.467000000     1.623000000
H    -0.478000000     8.373000000     1.593000000
H    -0.364000000     7.094000000     2.396000000
O    -0.664000000     5.995000000    -0.912000000
H    -1.016000000     5.368000000    -0.279000000
H    -0.891000000     6.852000000    -0.552000000
O     2.449000000    -3.846000000     2.427000000
H     2.690000000    -3.080000000     2.948000000
H     1.738000000    -3.540000000     1.865000000
