144
-2809.71149
O     6.463000000     2.823000000    -0.131000000
H     7.386000000     3.074000000    -0.098000000
H     6.210000000     2.959000000    -1.044000000
O    -5.238000000     2.392000000    -1.347000000
H    -6.105000000     2.008000000    -1.482000000
H    -4.634000000     1.654000000    -1.430000000
O    -3.384000000     3.825000000     1.583000000
H    -3.452000000     4.136000000     0.680000000
H    -2.487000000     3.500000000     1.658000000
O    -4.538000000    -0.071000000    -4.716000000
H    -4.218000000     0.126000000    -3.836000000
H    -5.433000000     0.269000000    -4.727000000
O    -2.840000000     5.798000000    -4.165000000
H    -2.550000000     4.908000000    -3.965000000
H    -3.610000000     5.930000000    -3.612000000
O    -1.654000000    -2.773000000     5.227000000
H    -2.063000000    -3.498000000     5.701000000
H    -2.367000000    -2.386000000     4.720000000
O    -2.833000000     3.897000000    -1.270000000
H    -2.007000000     3.488000000    -1.527000000
H    -3.489000000     3.210000000    -1.389000000
O     6.603000000    -0.086000000     0.193000000
H     6.831000000    -0.595000000    -0.585000000
H     6.654000000     0.825000000    -0.094000000
O    -6.362000000    -0.386000000     3.238000000
H    -6.730000000    -1.265000000     3.143000000
H    -6.058000000    -0.158000000     2.359000000
O    -5.793000000     4.145000000    -3.303000000
H    -5.898000000     3.796000000    -2.418000000
H    -5.491000000     3.398000000    -3.820000000
O     1.803000000     0.957000000     4.906000000
H     1.219000000     0.268000000     4.589000000
H     2.510000000     0.488000000     5.348000000
O    -4.166000000    -1.522000000     5.123000000
H    -4.132000000    -0.609000000     4.837000000
H    -4.176000000    -1.474000000     6.079000000
O    -0.779000000     2.745000000     1.660000000
H    -0.161000000     3.295000000     2.142000000
H    -0.482000000     1.850000000     1.825000000
O    -0.289000000    -3.013000000    -1.832000000
H    -0.585000000    -2.106000000    -1.754000000
H     0.019000000    -3.087000000    -2.736000000
O    -3.729000000     3.068000000    -6.568000000
H    -4.664000000     3.084000000    -6.366000000
H    -3.320000000     2.703000000    -5.783000000
O     7.413000000    -2.138000000    -1.310000000
H     7.829000000    -1.994000000    -0.460000000
H     6.515000000    -2.393000000    -1.097000000
O    -3.327000000    -0.218000000    -7.122000000
H    -3.559000000    -0.035000000    -6.211000000
H    -2.380000000    -0.088000000    -7.159000000
O    -0.654000000    -1.087000000    -4.500000000
H    -0.762000000    -0.140000000    -4.405000000
H     0.282000000    -1.207000000    -4.657000000
O    -8.096000000    -0.652000000    -0.283000000
H    -7.465000000    -1.195000000    -0.756000000
H    -7.937000000     0.236000000    -0.604000000
O     6.258000000     3.095000000     2.515000000
H     5.346000000     2.863000000     2.688000000
H     6.289000000     3.261000000     1.573000000
O    -5.599000000    -3.164000000     3.528000000
H    -5.200000000    -2.685000000     4.254000000
H    -5.204000000    -2.784000000     2.743000000
O     4.458000000    -2.317000000     4.243000000
H     4.047000000    -1.492000000     4.498000000
H     5.247000000    -2.055000000     3.767000000
O    -7.496000000     1.356000000    -2.256000000
H    -7.236000000     0.607000000    -2.792000000
H    -8.093000000     1.854000000    -2.814000000
O     5.943000000    -0.231000000    -3.021000000
H     4.989000000    -0.265000000    -3.102000000
H     6.209000000    -1.147000000    -2.941000000
O    -2.827000000    -3.758000000     2.360000000
H    -2.041000000    -4.031000000     1.888000000
H    -3.220000000    -4.576000000     2.665000000
O     2.402000000    -3.895000000    -1.364000000
H     2.437000000    -4.435000000    -0.574000000
H     1.467000000    -3.768000000    -1.526000000
O     0.217000000     1.664000000    -4.987000000
H     0.452000000     2.545000000    -4.698000000
H     0.641000000     1.570000000    -5.840000000
O    -4.861000000     1.184000000     1.538000000
H    -4.756000000     0.648000000     0.752000000
H    -4.628000000     2.069000000     1.258000000
O     6.444000000    -1.516000000     2.535000000
H     6.290000000    -0.938000000     1.788000000
H     6.794000000    -2.319000000     2.150000000
O    -7.881000000    -1.405000000    -3.186000000
H    -7.029000000    -1.632000000    -2.814000000
H    -7.887000000    -1.826000000    -4.046000000
O     3.979000000     2.390000000     3.653000000
H     3.348000000     1.676000000     3.750000000
H     4.221000000     2.620000000     4.550000000
O     0.934000000    -2.058000000     4.445000000
H     0.058000000    -2.002000000     4.828000000
H     0.968000000    -2.929000000     4.051000000
O    -3.766000000    -3.046000000    -4.547000000
H    -4.482000000    -3.545000000    -4.152000000
H    -4.113000000    -2.159000000    -4.637000000
O    -5.039000000    -4.226000000    -0.247000000
H    -4.285000000    -4.308000000    -0.831000000
H    -4.662000000    -3.982000000     0.598000000
O     4.993000000    -2.856000000    -0.322000000
H     4.387000000    -3.153000000    -1.000000000
H     4.476000000    -2.868000000     0.483000000
O     0.194000000     3.989000000    -3.303000000
H     0.097000000     4.938000000    -3.384000000
H     0.113000000     3.819000000    -2.365000000
O     3.439000000     3.165000000    -1.477000000
H     3.715000000     2.444000000    -0.912000000
H     2.543000000     3.357000000    -1.200000000
O    -5.942000000    -1.744000000    -1.201000000
H    -5.599000000    -2.610000000    -0.979000000
H    -5.231000000    -1.142000000    -0.981000000
O     2.720000000    -4.403000000     4.178000000
H     3.341000000    -3.678000000     4.105000000
H     3.085000000    -5.088000000     3.618000000
O     0.862000000     3.440000000    -0.768000000
H     0.381000000     2.958000000    -0.096000000
H     1.087000000     4.272000000    -0.351000000
O    -1.343000000     0.126000000     5.578000000
H    -1.611000000     0.995000000     5.878000000
H    -1.790000000     0.014000000     4.739000000
O    -2.350000000     2.392000000    -4.524000000
H    -1.443000000     2.102000000    -4.627000000
H    -2.662000000     1.931000000    -3.745000000
O     4.242000000    -0.027000000     6.041000000
H     4.110000000    -0.257000000     6.961000000
H     5.190000000     0.082000000     5.955000000
O     3.012000000     4.443000000    -3.855000000
H     3.326000000     4.008000000    -3.063000000
H     2.070000000     4.275000000    -3.864000000
O     2.077000000    -1.045000000    -5.097000000
H     2.241000000    -1.547000000    -5.895000000
H     2.539000000    -0.218000000    -5.234000000
O    -3.364000000     1.169000000     4.010000000
H    -3.486000000     0.891000000     3.102000000
H    -3.893000000     1.963000000     4.090000000
O    -2.469000000    -4.567000000    -0.933000000
H    -1.841000000    -3.955000000    -1.317000000
H    -1.935000000    -5.155000000    -0.400000000
O    -4.301000000    -1.845000000     1.364000000
H    -3.665000000    -2.354000000     1.867000000
H    -3.783000000    -1.430000000     0.674000000
