144
-2800.18892
O     1.009000000     0.799000000    -3.756000000
H     0.074000000     0.941000000    -3.608000000
H     1.326000000     1.632000000    -4.106000000
O    -3.418000000    -2.173000000    -3.213000000
H    -3.178000000    -2.260000000    -2.291000000
H    -4.031000000    -1.438000000    -3.233000000
O     4.780000000    -0.280000000     0.622000000
H     4.658000000     0.374000000    -0.065000000
H     5.430000000     0.106000000     1.209000000
O     1.337000000     5.994000000     1.868000000
H     1.988000000     5.302000000     1.982000000
H     1.210000000     6.050000000     0.921000000
O    -4.223000000    -1.597000000     1.237000000
H    -3.832000000    -1.919000000     0.425000000
H    -4.097000000    -0.649000000     1.204000000
O     4.436000000     1.102000000    -1.918000000
H     4.178000000     1.916000000    -2.350000000
H     4.963000000     0.641000000    -2.570000000
O     2.024000000    -8.246000000    -0.789000000
H     1.499000000    -7.522000000    -1.130000000
H     1.518000000    -8.582000000    -0.049000000
O    -4.080000000    -6.834000000     1.282000000
H    -4.008000000    -6.205000000     0.564000000
H    -3.786000000    -7.663000000     0.905000000
O    -1.732000000    -6.129000000     4.986000000
H    -0.777000000    -6.168000000     4.931000000
H    -1.940000000    -5.200000000     4.888000000
O    -5.184000000    -4.854000000     3.110000000
H    -5.411000000    -5.288000000     2.288000000
H    -4.230000000    -4.782000000     3.088000000
O    -1.400000000     3.520000000    -3.757000000
H    -1.566000000     4.160000000    -4.449000000
H    -0.812000000     3.971000000    -3.150000000
O    -0.097000000     7.526000000     3.853000000
H    -0.380000000     7.002000000     4.603000000
H     0.077000000     6.884000000     3.164000000
O    -0.098000000     6.650000000    -0.614000000
H    -1.009000000     6.683000000    -0.322000000
H     0.163000000     7.568000000    -0.687000000
O     0.705000000     4.497000000    -2.279000000
H     1.591000000     4.720000000    -1.993000000
H     0.139000000     5.106000000    -1.804000000
O    -1.983000000     1.572000000    -5.973000000
H    -1.645000000     0.679000000    -5.903000000
H    -1.886000000     1.935000000    -5.093000000
O     3.538000000     3.532000000    -4.030000000
H     4.332000000     4.062000000    -4.099000000
H     2.886000000     4.008000000    -4.545000000
O    -6.777000000    -2.160000000     1.633000000
H    -7.285000000    -1.887000000     0.869000000
H    -5.865000000    -2.028000000     1.374000000
O    -1.814000000    -1.331000000     2.917000000
H    -1.113000000    -1.981000000     2.881000000
H    -2.350000000    -1.514000000     2.146000000
O    -2.367000000    -3.583000000     5.111000000
H    -2.645000000    -3.427000000     4.209000000
H    -3.062000000    -3.200000000     5.646000000
O    -1.320000000    -7.641000000    -3.546000000
H    -1.068000000    -8.532000000    -3.301000000
H    -1.132000000    -7.117000000    -2.768000000
O     3.502000000     4.376000000     2.522000000
H     4.211000000     4.322000000     3.162000000
H     3.935000000     4.261000000     1.676000000
O     0.956000000    -0.278000000     4.124000000
H     0.328000000    -0.217000000     3.405000000
H     1.118000000    -1.216000000     4.223000000
O    -1.497000000    -6.045000000    -1.016000000
H    -1.186000000    -5.331000000    -0.460000000
H    -2.249000000    -5.678000000    -1.480000000
O    -3.018000000     1.071000000     1.367000000
H    -2.155000000     1.203000000     0.975000000
H    -3.308000000     1.949000000     1.612000000
O     0.713000000    -3.149000000     4.093000000
H     1.614000000    -3.376000000     3.863000000
H     0.306000000    -3.985000000     4.321000000
O     2.944000000     5.435000000    -1.242000000
H     2.864000000     6.389000000    -1.272000000
H     3.817000000     5.279000000    -0.881000000
O     2.695000000     1.609000000     5.219000000
H     1.987000000     0.989000000     5.044000000
H     2.531000000     2.336000000     4.618000000
O     1.816000000    -1.542000000    -5.077000000
H     1.598000000    -0.618000000    -4.953000000
H     1.824000000    -1.906000000    -4.192000000
O    -5.172000000    -6.898000000    -2.942000000
H    -5.000000000    -6.019000000    -2.605000000
H    -4.708000000    -6.929000000    -3.779000000
O     1.567000000    -4.796000000     0.961000000
H     0.748000000    -4.305000000     0.900000000
H     2.251000000    -4.127000000     0.925000000
O     1.231000000     4.512000000     4.512000000
H     2.058000000     4.963000000     4.679000000
H     1.130000000     4.542000000     3.560000000
O    -4.384000000    -5.128000000    -0.880000000
H    -5.174000000    -4.865000000    -0.407000000
H    -3.762000000    -4.418000000    -0.720000000
O    -4.705000000    -1.745000000     4.368000000
H    -5.647000000    -1.913000000     4.370000000
H    -4.456000000    -1.789000000     3.444000000
O    -3.720000000     2.483000000    -3.109000000
H    -2.846000000     2.822000000    -3.303000000
H    -4.075000000     3.092000000    -2.462000000
O    -1.169000000    -1.027000000    -4.511000000
H    -0.313000000    -1.133000000    -4.095000000
H    -1.796000000    -1.305000000    -3.844000000
O    -4.878000000     0.043000000    -3.824000000
H    -4.415000000     0.880000000    -3.817000000
H    -4.892000000    -0.216000000    -4.745000000
O     3.371000000    -4.502000000    -2.127000000
H     4.132000000    -4.896000000    -1.699000000
H     3.133000000    -3.767000000    -1.562000000
O     3.364000000    -3.021000000     3.810000000
H     3.443000000    -3.036000000     2.857000000
H     3.989000000    -2.352000000     4.091000000
O     3.569000000    -1.482000000    -2.150000000
H     3.441000000    -0.540000000    -2.032000000
H     4.492000000    -1.626000000    -1.942000000
O     1.636000000     5.501000000    -4.620000000
H     1.350000000     5.178000000    -3.766000000
H     1.433000000     6.437000000    -4.602000000
O    -3.328000000    -4.784000000    -4.176000000
H    -2.374000000    -4.856000000    -4.168000000
H    -3.507000000    -3.935000000    -3.772000000
O    -7.573000000    -0.365000000    -3.038000000
H    -6.649000000    -0.244000000    -3.257000000
H    -7.888000000    -1.008000000    -3.673000000
O    -0.497000000    -4.498000000    -3.788000000
H     0.156000000    -4.064000000    -3.240000000
H    -0.362000000    -4.128000000    -4.660000000
O     0.707000000    -2.060000000    -2.541000000
H     1.646000000    -2.020000000    -2.359000000
H     0.340000000    -1.309000000    -2.075000000
O     0.075000000    -7.097000000     1.078000000
H     0.503000000    -6.280000000     0.822000000
H    -0.476000000    -7.324000000     0.329000000
O    -2.484000000    -4.806000000     2.349000000
H    -2.027000000    -4.401000000     1.612000000
H    -2.127000000    -5.693000000     2.394000000
O     3.543000000    -2.672000000     0.718000000
H     3.874000000    -1.783000000     0.590000000
H     4.247000000    -3.237000000     0.402000000
O     5.321000000     5.183000000     0.473000000
H     5.828000000     4.720000000     1.140000000
H     5.972000000     5.465000000    -0.170000000
