144
-2780.12227
O     0.894000000     5.132000000    -2.820000000
H     0.648000000     4.836000000    -3.696000000
H     0.108000000     5.559000000    -2.481000000
O     6.331000000     4.081000000    -0.804000000
H     7.215000000     4.336000000    -1.068000000
H     6.464000000     3.471000000    -0.079000000
O    -2.613000000     0.822000000    -3.367000000
H    -2.288000000    -0.078000000    -3.407000000
H    -3.537000000     0.732000000    -3.132000000
O    -5.344000000     1.091000000    -0.913000000
H    -4.969000000     0.351000000    -1.390000000
H    -5.881000000     0.688000000    -0.231000000
O    -4.366000000    -1.324000000     1.894000000
H    -3.778000000    -1.294000000     1.139000000
H    -5.146000000    -1.777000000     1.573000000
O    -7.078000000    -4.452000000     1.428000000
H    -7.877000000    -4.079000000     1.800000000
H    -6.689000000    -3.734000000     0.928000000
O    -0.888000000    -7.165000000    -2.588000000
H    -0.454000000    -6.739000000    -1.849000000
H    -0.509000000    -6.748000000    -3.362000000
O    -3.238000000    -5.403000000     0.780000000
H    -2.805000000    -6.256000000     0.763000000
H    -2.565000000    -4.786000000     0.494000000
O     4.628000000     6.655000000     2.083000000
H     3.902000000     6.373000000     1.527000000
H     4.206000000     7.087000000     2.826000000
O     1.525000000     7.935000000     2.451000000
H     1.290000000     7.039000000     2.209000000
H     0.980000000     8.486000000     1.889000000
O     2.294000000     6.196000000    -0.058000000
H     2.022000000     5.760000000     0.750000000
H     1.980000000     5.622000000    -0.757000000
O     3.965000000    -3.942000000    -1.484000000
H     3.877000000    -4.073000000    -0.540000000
H     4.878000000    -4.161000000    -1.672000000
O    -2.583000000    -7.963000000    -0.014000000
H    -1.628000000    -7.983000000    -0.071000000
H    -2.868000000    -7.653000000    -0.874000000
O    -5.321000000    -6.229000000     2.268000000
H    -4.467000000    -6.075000000     1.863000000
H    -5.908000000    -5.612000000     1.831000000
O    -3.109000000     3.958000000    -0.610000000
H    -3.187000000     3.004000000    -0.620000000
H    -3.656000000     4.235000000     0.125000000
O    -0.074000000    -7.130000000     1.418000000
H     0.499000000    -7.896000000     1.435000000
H    -0.312000000    -6.988000000     2.334000000
O     1.299000000    -0.020000000     3.385000000
H     2.139000000     0.103000000     2.943000000
H     0.868000000    -0.716000000     2.890000000
O    -1.202000000     5.812000000    -1.398000000
H    -1.173000000     6.200000000    -0.524000000
H    -2.111000000     5.530000000    -1.505000000
O    -6.001000000    -2.519000000    -0.274000000
H    -5.132000000    -2.660000000    -0.649000000
H    -6.544000000    -2.259000000    -1.019000000
O    -6.577000000    -3.840000000    -2.885000000
H    -6.734000000    -4.430000000    -3.622000000
H    -5.652000000    -3.964000000    -2.672000000
O     1.867000000     4.964000000     2.295000000
H     1.184000000     4.349000000     2.564000000
H     2.680000000     4.575000000     2.619000000
O     1.220000000    -3.767000000     4.047000000
H     0.530000000    -3.339000000     3.542000000
H     1.536000000    -4.468000000     3.476000000
O    -2.199000000     1.314000000     4.530000000
H    -2.886000000     1.981000000     4.541000000
H    -1.492000000     1.689000000     5.055000000
O    -0.358000000     3.351000000     2.739000000
H    -1.245000000     3.428000000     3.090000000
H    -0.120000000     2.436000000     2.886000000
O     1.747000000    -3.628000000    -4.852000000
H     0.889000000    -3.722000000    -4.438000000
H     1.923000000    -4.487000000    -5.234000000
O     0.690000000    -4.527000000     1.396000000
H    -0.164000000    -4.347000000     1.003000000
H     0.646000000    -5.448000000     1.654000000
O     4.775000000     3.682000000     3.732000000
H     5.369000000     2.958000000     3.533000000
H     5.249000000     4.465000000     3.453000000
O     5.513000000    -2.375000000     1.770000000
H     6.208000000    -2.358000000     1.111000000
H     4.703000000    -2.420000000     1.262000000
O    -4.283000000    -4.226000000    -1.609000000
H    -4.385000000    -4.913000000    -0.950000000
H    -3.793000000    -3.537000000    -1.162000000
O    -0.976000000    -1.416000000     4.189000000
H    -1.466000000    -0.683000000     3.817000000
H    -0.261000000    -1.005000000     4.675000000
O     3.570000000     1.858000000    -2.973000000
H     2.647000000     2.018000000    -2.775000000
H     3.556000000     1.168000000    -3.636000000
O     4.639000000     5.255000000    -2.488000000
H     3.805000000     4.788000000    -2.439000000
H     5.237000000     4.733000000    -1.953000000
O    -3.407000000    -4.904000000    -4.061000000
H    -3.628000000    -4.771000000    -3.140000000
H    -2.550000000    -4.490000000    -4.164000000
O     2.870000000    -1.395000000    -2.994000000
H     2.727000000    -2.295000000    -2.699000000
H     3.807000000    -1.246000000    -2.862000000
O     4.686000000     0.426000000     4.745000000
H     5.040000000     0.140000000     5.588000000
H     4.072000000     1.126000000     4.968000000
O    -3.649000000    -2.616000000     4.069000000
H    -2.695000000    -2.542000000     4.042000000
H    -3.949000000    -2.112000000     3.312000000
O     4.714000000     2.477000000    -5.421000000
H     3.772000000     2.444000000    -5.585000000
H     4.789000000     2.707000000    -4.495000000
O     1.909000000    -5.429000000    -2.251000000
H     2.404000000    -6.163000000    -2.616000000
H     2.579000000    -4.809000000    -1.961000000
O     6.979000000     2.490000000     1.296000000
H     6.976000000     2.299000000     2.234000000
H     6.952000000     1.630000000     0.876000000
O    -5.657000000     0.926000000     2.761000000
H    -6.179000000     1.374000000     2.095000000
H    -5.300000000     0.161000000     2.311000000
O    -1.661000000    -1.737000000    -3.534000000
H    -0.980000000    -1.294000000    -4.040000000
H    -1.271000000    -2.575000000    -3.289000000
O    -4.448000000    -1.201000000    -2.310000000
H    -3.583000000    -1.424000000    -1.965000000
H    -4.626000000    -1.876000000    -2.964000000
O     0.694000000     0.467000000    -3.386000000
H     0.432000000     0.386000000    -2.469000000
H     1.497000000    -0.050000000    -3.453000000
O    -0.310000000    -3.903000000    -2.588000000
H     0.410000000    -4.531000000    -2.521000000
H    -0.770000000    -3.977000000    -1.752000000
O     3.152000000    -3.796000000     1.037000000
H     3.388000000    -4.173000000     1.885000000
H     2.220000000    -3.992000000     0.939000000
O    -1.456000000     6.376000000     1.365000000
H    -2.347000000     6.726000000     1.403000000
H    -1.361000000     5.876000000     2.176000000
O     5.317000000     0.813000000    -0.913000000
H     5.647000000     0.741000000    -1.808000000
H     4.888000000     1.669000000    -0.884000000
O     7.112000000    -1.900000000    -0.364000000
H     6.792000000    -1.016000000    -0.546000000
H     6.917000000    -2.394000000    -1.161000000
