144
-2807.12094
O     4.233000000     5.693000000     0.604000000
H     4.561000000     5.071000000    -0.046000000
H     3.312000000     5.817000000     0.373000000
O     3.825000000     3.536000000    -5.277000000
H     3.978000000     3.875000000    -4.396000000
H     2.949000000     3.847000000    -5.506000000
O    -6.244000000    -3.564000000     3.121000000
H    -5.524000000    -2.973000000     3.345000000
H    -7.035000000    -3.055000000     3.297000000
O     5.144000000     4.366000000    -2.950000000
H     5.034000000     3.629000000    -2.349000000
H     6.050000000     4.647000000    -2.821000000
O    -5.234000000     0.670000000    -0.819000000
H    -5.509000000     0.608000000     0.095000000
H    -5.972000000     1.086000000    -1.264000000
O    -1.589000000     6.210000000    -3.979000000
H    -1.318000000     5.298000000    -4.082000000
H    -0.895000000     6.716000000    -4.402000000
O    -2.749000000     1.679000000    -2.249000000
H    -2.351000000     0.885000000    -2.606000000
H    -3.505000000     1.364000000    -1.753000000
O     0.776000000    -1.023000000     5.537000000
H     0.688000000    -0.087000000     5.357000000
H     1.377000000    -1.069000000     6.280000000
O    -1.456000000     2.125000000     3.277000000
H    -1.613000000     2.950000000     2.817000000
H    -0.948000000     1.599000000     2.659000000
O     2.807000000    -1.214000000    -3.259000000
H     3.131000000    -2.085000000    -3.030000000
H     3.590000000    -0.727000000    -3.515000000
O     1.143000000     4.256000000     3.017000000
H     0.350000000     4.613000000     2.615000000
H     1.547000000     5.005000000     3.455000000
O     5.629000000    -1.397000000    -1.523000000
H     4.902000000    -1.208000000    -0.929000000
H     5.457000000    -0.854000000    -2.292000000
O     4.309000000     1.137000000     0.921000000
H     4.129000000     1.389000000     1.826000000
H     3.707000000     0.413000000     0.749000000
O     0.189000000    -3.146000000     3.850000000
H     0.518000000    -2.437000000     4.402000000
H    -0.622000000    -2.802000000     3.476000000
O     1.784000000     5.003000000    -3.018000000
H     1.469000000     5.235000000    -2.144000000
H     1.258000000     4.243000000    -3.268000000
O     1.428000000     6.131000000    -0.232000000
H     0.556000000     6.203000000    -0.620000000
H     1.335000000     6.517000000     0.639000000
O    -4.375000000    -1.519000000     3.775000000
H    -4.116000000    -0.729000000     4.251000000
H    -3.551000000    -1.885000000     3.454000000
O     0.676000000    -0.307000000    -5.151000000
H     1.307000000    -0.530000000    -4.467000000
H     0.435000000    -1.148000000    -5.539000000
O    -0.703000000     3.677000000    -4.432000000
H    -1.015000000     3.168000000    -5.180000000
H    -1.330000000     3.488000000    -3.734000000
O    -5.242000000    -2.337000000    -0.405000000
H    -5.314000000    -1.472000000    -0.807000000
H    -4.374000000    -2.344000000    -0.003000000
O    -0.771000000     1.647000000     5.678000000
H    -1.652000000     1.367000000     5.926000000
H    -0.874000000     2.013000000     4.800000000
O     3.010000000     2.330000000     3.078000000
H     3.337000000     2.051000000     3.933000000
H     2.474000000     3.101000000     3.266000000
O    -6.086000000    -3.888000000    -2.487000000
H    -5.844000000    -3.561000000    -1.620000000
H    -5.762000000    -4.789000000    -2.502000000
O    -1.768000000    -1.308000000     6.595000000
H    -0.938000000    -1.116000000     6.159000000
H    -2.359000000    -0.616000000     6.300000000
O    -3.670000000     0.549000000     5.574000000
H    -3.725000000     0.920000000     6.455000000
H    -3.685000000     1.310000000     4.993000000
O    -5.788000000     0.089000000    -3.316000000
H    -5.122000000     0.091000000    -2.629000000
H    -6.042000000     1.008000000    -3.406000000
O    -5.885000000    -2.080000000     6.100000000
H    -6.179000000    -1.252000000     6.478000000
H    -5.402000000    -1.827000000     5.313000000
O     1.471000000     4.537000000    -5.927000000
H     1.012000000     4.837000000    -6.712000000
H     0.776000000     4.388000000    -5.286000000
O    -2.429000000    -3.776000000     4.916000000
H    -2.462000000    -3.528000000     3.992000000
H    -2.343000000    -2.946000000     5.384000000
O    -4.921000000    -7.065000000     2.590000000
H    -4.414000000    -7.534000000     3.253000000
H    -4.355000000    -6.341000000     2.323000000
O    -1.366000000    -5.210000000     1.770000000
H    -0.971000000    -4.792000000     2.536000000
H    -2.190000000    -4.740000000     1.639000000
O     5.542000000     2.212000000    -1.066000000
H     6.391000000     1.979000000    -0.690000000
H     4.902000000     1.801000000    -0.485000000
O    -2.123000000    -7.869000000     1.060000000
H    -1.735000000    -6.996000000     1.007000000
H    -2.422000000    -8.053000000     0.170000000
O     0.035000000    -5.339000000     5.856000000
H     0.052000000    -4.583000000     5.269000000
H    -0.733000000    -5.196000000     6.408000000
O     5.347000000    -0.166000000    -3.977000000
H     5.615000000     0.724000000    -4.204000000
H     5.691000000    -0.708000000    -4.687000000
O     3.113000000    -1.334000000    -0.107000000
H     2.247000000    -1.184000000    -0.487000000
H     3.112000000    -2.260000000     0.135000000
O    -1.234000000     3.629000000    -1.059000000
H    -0.690000000     2.854000000    -1.199000000
H    -1.995000000     3.304000000    -0.578000000
O    -3.355000000    -3.818000000    -5.075000000
H    -3.097000000    -4.033000000    -4.179000000
H    -2.631000000    -4.133000000    -5.615000000
O    -4.228000000    -5.681000000    -0.910000000
H    -4.128000000    -6.631000000    -0.855000000
H    -4.198000000    -5.384000000     0.000000000
O     5.005000000     4.167000000     2.656000000
H     4.743000000     4.776000000     1.965000000
H     4.380000000     3.445000000     2.588000000
O    -2.802000000    -0.845000000    -3.535000000
H    -3.631000000    -0.833000000    -4.013000000
H    -2.574000000    -1.773000000    -3.477000000
O    -6.005000000     0.146000000     1.635000000
H    -6.824000000     0.194000000     2.127000000
H    -5.359000000    -0.157000000     2.273000000
O    -4.059000000    -4.613000000     1.798000000
H    -4.875000000    -4.356000000     2.226000000
H    -3.672000000    -3.787000000     1.505000000
O    -2.284000000    -3.741000000    -2.614000000
H    -2.927000000    -3.655000000    -1.909000000
H    -1.709000000    -4.450000000    -2.328000000
O     1.058000000    -5.853000000     0.415000000
H     1.041000000    -6.761000000     0.716000000
H     0.332000000    -5.434000000     0.876000000
O     3.091000000     0.220000000    -6.784000000
H     3.581000000     1.042000000    -6.806000000
H     2.516000000     0.304000000    -6.023000000
O    -1.294000000     4.450000000     1.774000000
H    -1.402000000     4.320000000     0.832000000
H    -1.445000000     5.387000000     1.905000000
O    -1.625000000     1.127000000    -5.510000000
H    -0.845000000     0.633000000    -5.256000000
H    -2.357000000     0.606000000    -5.180000000
