144
-2842.24229
O     5.471000000     2.586000000    -1.564000000
H     6.359000000     2.459000000    -1.228000000
H     5.085000000     1.710000000    -1.558000000
O    -4.526000000     2.647000000    -2.043000000
H    -5.239000000     2.485000000    -1.425000000
H    -4.087000000     1.801000000    -2.129000000
O    -4.748000000     4.504000000     0.868000000
H    -4.246000000     5.318000000     0.914000000
H    -4.085000000     3.814000000     0.862000000
O    -4.731000000    -0.859000000    -3.910000000
H    -4.078000000    -0.574000000    -3.270000000
H    -4.718000000    -0.180000000    -4.584000000
O    -2.053000000     4.307000000    -4.772000000
H    -1.926000000     3.379000000    -4.571000000
H    -3.002000000     4.428000000    -4.751000000
O    -1.160000000    -0.400000000     4.441000000
H    -1.120000000     0.244000000     3.734000000
H    -1.741000000    -1.084000000     4.110000000
O    -2.251000000     4.116000000    -1.757000000
H    -1.973000000     3.931000000    -2.655000000
H    -3.010000000     3.548000000    -1.621000000
O     4.540000000     0.155000000    -1.947000000
H     4.902000000    -0.715000000    -1.781000000
H     4.154000000     0.091000000    -2.821000000
O     1.740000000     2.489000000     4.563000000
H     1.981000000     3.366000000     4.862000000
H     2.484000000     1.939000000     4.809000000
O     4.096000000    -4.312000000     3.615000000
H     4.578000000    -3.501000000     3.448000000
H     4.744000000    -4.900000000     4.003000000
O    -7.551000000     0.079000000     2.620000000
H    -6.998000000    -0.691000000     2.488000000
H    -7.268000000     0.696000000     1.945000000
O    -4.459000000     4.323000000    -4.253000000
H    -4.841000000     5.199000000    -4.298000000
H    -4.826000000     3.942000000    -3.456000000
O     3.715000000     0.303000000     5.092000000
H     2.919000000    -0.179000000     5.319000000
H     4.126000000     0.497000000     5.935000000
O    -5.244000000     0.387000000     4.539000000
H    -6.068000000     0.101000000     4.145000000
H    -4.727000000     0.715000000     3.803000000
O    -2.311000000     2.904000000     0.974000000
H    -1.855000000     3.270000000     0.216000000
H    -1.627000000     2.457000000     1.472000000
O    -0.890000000    -3.953000000    -2.172000000
H    -1.572000000    -4.397000000    -1.668000000
H    -1.075000000    -4.184000000    -3.082000000
O     5.863000000    -2.711000000    -1.623000000
H     6.146000000    -3.413000000    -1.038000000
H     5.640000000    -3.155000000    -2.440000000
O     3.502000000     3.655000000    -0.141000000
H     3.239000000     4.273000000    -0.824000000
H     4.219000000     3.156000000    -0.532000000
O    -4.615000000     1.368000000    -5.606000000
H    -5.452000000     1.830000000    -5.654000000
H    -3.995000000     2.028000000    -5.294000000
O    -1.015000000    -0.587000000    -6.087000000
H    -1.305000000    -1.242000000    -6.722000000
H    -0.226000000    -0.210000000    -6.476000000
O    -0.665000000    -4.049000000     2.916000000
H     0.275000000    -3.930000000     2.775000000
H    -0.744000000    -4.935000000     3.268000000
O     1.527000000    -5.998000000     0.610000000
H     1.563000000    -5.071000000     0.846000000
H     2.096000000    -6.429000000     1.248000000
O    -8.917000000     0.859000000    -0.867000000
H    -8.099000000     1.198000000    -0.505000000
H    -8.842000000     1.007000000    -1.810000000
O    -4.673000000    -4.619000000    -3.311000000
H    -4.530000000    -3.981000000    -2.612000000
H    -5.424000000    -4.279000000    -3.797000000
O     5.290000000    -1.895000000     3.420000000
H     4.876000000    -1.033000000     3.446000000
H     5.967000000    -1.815000000     2.748000000
O     3.579000000     5.015000000     2.146000000
H     4.251000000     5.569000000     1.748000000
H     3.483000000     4.282000000     1.539000000
O     3.604000000     0.181000000    -4.536000000
H     4.050000000     0.558000000    -5.295000000
H     3.105000000     0.909000000    -4.165000000
O    -2.886000000    -2.615000000     3.982000000
H    -2.401000000    -3.257000000     3.464000000
H    -3.367000000    -3.139000000     4.623000000
O     1.949000000    -2.486000000    -3.249000000
H     1.340000000    -2.715000000    -2.547000000
H     1.514000000    -1.777000000    -3.722000000
O     1.831000000     2.372000000    -3.901000000
H     1.990000000     3.040000000    -3.234000000
H     1.455000000     2.853000000    -4.638000000
O    -5.749000000     1.567000000     0.494000000
H    -5.256000000     0.927000000    -0.019000000
H    -5.165000000     1.796000000     1.217000000
O     0.045000000     4.906000000     2.700000000
H     0.391000000     4.467000000     1.922000000
H     0.813000000     5.302000000     3.112000000
O     7.858000000    -1.170000000    -0.737000000
H     7.264000000    -1.623000000    -1.335000000
H     7.466000000    -1.292000000     0.128000000
O     6.409000000     0.937000000     3.879000000
H     5.595000000     1.156000000     4.335000000
H     6.601000000     1.709000000     3.347000000
O     1.211000000    -0.865000000     6.070000000
H     0.451000000    -0.930000000     5.492000000
H     1.503000000    -1.769000000     6.185000000
O    -2.834000000    -2.318000000    -5.070000000
H    -3.462000000    -1.790000000    -4.578000000
H    -2.074000000    -1.746000000    -5.180000000
O    -4.294000000    -2.887000000    -1.286000000
H    -3.725000000    -3.334000000    -0.659000000
H    -4.201000000    -1.959000000    -1.074000000
O     1.009000000     5.211000000    -4.477000000
H     0.245000000     5.315000000    -5.044000000
H     0.662000000     5.299000000    -3.589000000
O     0.812000000     3.635000000     0.410000000
H     1.716000000     3.322000000     0.442000000
H     0.343000000     2.961000000    -0.081000000
O    -6.691000000    -1.748000000    -1.897000000
H    -6.012000000    -2.340000000    -1.572000000
H    -6.424000000    -1.548000000    -2.794000000
O     1.940000000    -3.506000000     1.701000000
H     2.713000000    -3.554000000     2.264000000
H     2.007000000    -2.650000000     1.277000000
O    -0.143000000     5.709000000    -1.800000000
H    -1.038000000     5.396000000    -1.667000000
H     0.359000000     5.307000000    -1.091000000
O    -1.973000000     1.697000000    -4.193000000
H    -1.864000000     1.025000000    -4.865000000
H    -2.178000000     1.208000000    -3.396000000
O    -0.591000000     1.815000000     2.756000000
H    -0.008000000     1.076000000     2.579000000
H    -0.043000000     2.447000000     3.221000000
O     2.945000000     5.210000000    -2.395000000
H     2.653000000     5.218000000    -3.306000000
H     2.916000000     6.129000000    -2.127000000
O    -4.114000000     2.279000000     2.942000000
H    -3.660000000     2.662000000     3.693000000
H    -3.476000000     2.321000000     2.230000000
O    -2.872000000    -4.234000000     0.498000000
H    -2.125000000    -4.811000000     0.338000000
H    -3.424000000    -4.720000000     1.111000000
O    -5.123000000    -1.404000000     2.085000000
H    -4.558000000    -1.930000000     2.651000000
H    -4.553000000    -1.128000000     1.368000000
