144
-2801.60016
O     1.698000000    -3.052000000     0.558000000
H     1.490000000    -2.865000000    -0.358000000
H     1.594000000    -2.212000000     1.004000000
O    -6.457000000     0.629000000     0.926000000
H    -6.127000000    -0.269000000     0.924000000
H    -6.560000000     0.845000000     1.853000000
O    -5.173000000    -1.821000000     4.329000000
H    -6.017000000    -2.202000000     4.572000000
H    -4.583000000    -2.571000000     4.258000000
O     0.004000000    -6.411000000     1.441000000
H    -0.110000000    -5.474000000     1.284000000
H    -0.780000000    -6.814000000     1.068000000
O     3.648000000    -1.475000000     1.907000000
H     3.857000000    -0.669000000     2.380000000
H     3.956000000    -2.176000000     2.481000000
O     2.127000000    -3.886000000     5.303000000
H     2.245000000    -2.961000000     5.518000000
H     1.860000000    -3.887000000     4.384000000
O     4.167000000     1.105000000     2.820000000
H     3.532000000     1.768000000     2.548000000
H     3.862000000     0.822000000     3.682000000
O     2.568000000     3.155000000     2.774000000
H     2.214000000     3.919000000     2.319000000
H     3.442000000     3.427000000     3.055000000
O    -3.384000000     1.935000000    -5.350000000
H    -2.994000000     1.969000000    -6.223000000
H    -2.983000000     1.170000000    -4.938000000
O    -2.769000000    -3.239000000    -4.196000000
H    -2.095000000    -3.889000000    -3.998000000
H    -3.232000000    -3.115000000    -3.368000000
O    -0.002000000    -2.779000000    -5.119000000
H     0.389000000    -1.906000000    -5.074000000
H     0.714000000    -3.349000000    -5.396000000
O     1.790000000     5.455000000     0.303000000
H     1.474000000     5.705000000    -0.566000000
H     1.208000000     5.913000000     0.910000000
O     6.902000000    -0.340000000     0.089000000
H     6.569000000     0.550000000     0.205000000
H     6.269000000    -0.759000000    -0.494000000
O     0.725000000    -3.787000000     2.923000000
H     0.172000000    -3.007000000     2.876000000
H     1.024000000    -3.923000000     2.024000000
O     1.101000000     1.988000000    -6.301000000
H     1.235000000     2.354000000    -7.176000000
H     1.032000000     2.753000000    -5.730000000
O     3.755000000     1.640000000    -4.310000000
H     3.761000000     1.600000000    -3.353000000
H     3.643000000     2.570000000    -4.509000000
O     0.420000000     2.762000000     4.765000000
H     0.207000000     3.694000000     4.827000000
H     0.912000000     2.576000000     5.564000000
O     1.436000000    -0.446000000    -5.474000000
H     2.106000000    -0.779000000    -6.071000000
H     1.433000000     0.500000000    -5.620000000
O    -1.093000000    -5.982000000     5.504000000
H    -1.957000000    -6.387000000     5.569000000
H    -1.201000000    -5.120000000     5.907000000
O     0.994000000     3.998000000    -4.432000000
H     0.844000000     4.876000000    -4.781000000
H     0.249000000     3.840000000    -3.852000000
O    -3.545000000     2.419000000     1.108000000
H    -3.848000000     2.032000000     1.929000000
H    -2.608000000     2.228000000     1.084000000
O     5.788000000     2.194000000     0.671000000
H     5.400000000     3.021000000     0.381000000
H     5.167000000     1.851000000     1.314000000
O    -4.487000000     1.627000000    -1.348000000
H    -4.145000000     2.108000000    -0.595000000
H    -5.335000000     1.295000000    -1.056000000
O    -7.484000000    -2.619000000    -0.224000000
H    -6.728000000    -2.374000000     0.311000000
H    -7.279000000    -2.284000000    -1.097000000
O     4.308000000    -0.938000000    -0.648000000
H     3.917000000    -1.208000000     0.182000000
H     4.392000000    -1.749000000    -1.149000000
O    -1.116000000     0.190000000     4.987000000
H    -0.734000000     0.854000000     4.413000000
H    -1.090000000    -0.616000000     4.471000000
O    -3.567000000    -4.026000000     4.023000000
H    -2.920000000    -3.597000000     3.462000000
H    -4.250000000    -4.319000000     3.421000000
O    -2.395000000    -4.473000000    -0.272000000
H    -1.618000000    -4.253000000    -0.786000000
H    -2.474000000    -3.758000000     0.360000000
O    -0.166000000    -4.476000000    -2.507000000
H     0.427000000    -3.746000000    -2.327000000
H    -0.180000000    -4.542000000    -3.461000000
O    -5.621000000    -4.671000000     2.259000000
H    -5.450000000    -4.029000000     1.570000000
H    -6.427000000    -4.367000000     2.675000000
O    -1.098000000    -3.059000000     6.062000000
H    -0.562000000    -2.316000000     6.340000000
H    -1.195000000    -2.943000000     5.116000000
O     1.289000000    -1.338000000     6.361000000
H     1.230000000    -1.057000000     7.274000000
H     2.060000000    -0.884000000     6.020000000
O     5.994000000     1.594000000    -2.174000000
H     6.374000000     0.738000000    -2.370000000
H     5.549000000     1.472000000    -1.335000000
O    -3.639000000     0.024000000     5.945000000
H    -2.788000000    -0.134000000     5.536000000
H    -4.272000000    -0.358000000     5.337000000
O     6.511000000    -0.997000000    -2.995000000
H     6.753000000    -1.542000000    -3.744000000
H     5.600000000    -1.230000000    -2.814000000
O    -0.169000000     3.011000000     2.124000000
H     0.307000000     2.294000000     1.704000000
H     0.125000000     2.992000000     3.035000000
O    -4.820000000    -4.539000000    -1.949000000
H    -4.102000000    -4.732000000    -1.346000000
H    -5.284000000    -5.371000000    -2.044000000
O    -3.527000000    -4.176000000     7.028000000
H    -3.741000000    -5.028000000     6.648000000
H    -3.017000000    -3.733000000     6.350000000
O     4.414000000     4.296000000     0.036000000
H     4.670000000     5.114000000    -0.391000000
H     3.470000000     4.381000000     0.170000000
O    -4.435000000    -0.576000000    -3.077000000
H    -3.513000000    -0.511000000    -3.323000000
H    -4.600000000     0.208000000    -2.553000000
O    -5.596000000    -1.923000000     1.540000000
H    -5.725000000    -2.133000000     2.465000000
H    -4.666000000    -1.707000000     1.471000000
O    -1.473000000     1.165000000    -7.229000000
H    -1.229000000     0.489000000    -7.861000000
H    -0.705000000     1.253000000    -6.664000000
O    -1.746000000    -0.491000000    -4.369000000
H    -0.840000000    -0.345000000    -4.642000000
H    -1.901000000    -1.419000000    -4.542000000
O     1.307000000    -2.166000000    -2.028000000
H     0.779000000    -1.395000000    -2.237000000
H     2.207000000    -1.841000000    -2.005000000
O     3.857000000    -1.548000000    -3.802000000
H     3.196000000    -2.140000000    -4.160000000
H     3.540000000    -0.673000000    -4.024000000
O     0.799000000     6.797000000    -1.928000000
H     0.327000000     6.202000000    -2.510000000
H     0.177000000     7.501000000    -1.749000000
O    -0.976000000     3.806000000    -2.499000000
H    -1.220000000     3.019000000    -2.011000000
H    -1.702000000     4.412000000    -2.354000000
O     4.765000000     0.457000000    -6.665000000
H     5.674000000     0.210000000    -6.491000000
H     4.431000000     0.752000000    -5.818000000
