144
-2794.62055
O    -2.711000000     2.708000000    -4.441000000
H    -3.488000000     2.727000000    -3.882000000
H    -2.350000000     3.592000000    -4.380000000
O     0.296000000     2.419000000     7.243000000
H    -0.152000000     1.773000000     6.697000000
H     0.765000000     2.975000000     6.621000000
O     0.072000000     3.765000000    -6.876000000
H    -0.187000000     3.282000000    -6.091000000
H    -0.359000000     4.615000000    -6.788000000
O     1.143000000    -5.329000000    -5.523000000
H     0.570000000    -5.835000000    -6.099000000
H     0.595000000    -5.113000000    -4.769000000
O     2.579000000    -0.045000000     5.038000000
H     2.145000000    -0.889000000     5.157000000
H     1.994000000     0.447000000     4.462000000
O    -3.562000000     0.625000000     3.048000000
H    -2.692000000     1.013000000     2.955000000
H    -3.421000000    -0.152000000     3.590000000
O    -5.944000000    -0.752000000     3.346000000
H    -5.261000000    -0.185000000     2.988000000
H    -6.596000000    -0.810000000     2.648000000
O    -6.808000000    -0.060000000     0.899000000
H    -7.684000000     0.319000000     0.964000000
H    -6.245000000     0.676000000     0.658000000
O    -2.855000000    -4.387000000     1.789000000
H    -3.171000000    -4.415000000     2.692000000
H    -2.118000000    -3.777000000     1.812000000
O     5.024000000    -0.547000000     3.125000000
H     5.353000000     0.077000000     3.771000000
H     4.074000000    -0.426000000     3.137000000
O     5.517000000    -1.234000000    -2.542000000
H     5.967000000    -1.956000000    -2.981000000
H     5.606000000    -0.495000000    -3.145000000
O     1.708000000    -3.772000000     2.197000000
H     0.958000000    -3.428000000     1.711000000
H     2.270000000    -4.159000000     1.526000000
O     5.456000000     1.003000000    -4.052000000
H     5.771000000     1.416000000    -4.856000000
H     4.613000000     0.620000000    -4.295000000
O     4.035000000     0.455000000    -0.722000000
H     4.424000000    -0.021000000    -1.455000000
H     3.190000000     0.758000000    -1.055000000
O    -2.644000000     4.525000000     5.710000000
H    -2.067000000     4.602000000     4.951000000
H    -2.050000000     4.397000000     6.450000000
O     1.057000000     3.545000000     0.439000000
H     0.794000000     4.329000000     0.920000000
H     1.727000000     3.139000000     0.989000000
O    -0.671000000    -2.756000000     1.134000000
H    -0.682000000    -3.288000000     0.338000000
H    -0.417000000    -1.883000000     0.835000000
O    -2.876000000     4.502000000     0.685000000
H    -2.961000000     4.685000000     1.621000000
H    -2.081000000     4.966000000     0.421000000
O     4.804000000     3.741000000     5.631000000
H     4.215000000     4.493000000     5.694000000
H     4.739000000     3.463000000     4.717000000
O     5.004000000     1.020000000     5.626000000
H     4.885000000     1.958000000     5.475000000
H     4.133000000     0.644000000     5.503000000
O     5.884000000     0.744000000     1.053000000
H     5.311000000     0.470000000     0.336000000
H     5.643000000     0.173000000     1.783000000
O    -5.448000000     2.130000000    -2.484000000
H    -5.193000000     2.300000000    -1.577000000
H    -5.066000000     1.276000000    -2.685000000
O     2.633000000    -3.157000000    -4.031000000
H     2.872000000    -4.014000000    -3.677000000
H     2.027000000    -3.354000000    -4.745000000
O     1.522000000     3.418000000     5.047000000
H     0.956000000     2.783000000     4.608000000
H     2.407000000     3.182000000     4.768000000
O     0.889000000     5.847000000     6.011000000
H     0.852000000     4.984000000     5.599000000
H     1.725000000     5.855000000     6.476000000
O    -0.709000000    -4.644000000    -0.782000000
H    -0.089000000    -5.354000000    -0.945000000
H    -1.505000000    -5.084000000    -0.482000000
O    -1.018000000     0.798000000     5.596000000
H    -0.965000000     1.185000000     4.722000000
H    -1.607000000     0.050000000     5.492000000
O    -2.715000000    -1.485000000     5.135000000
H    -2.330000000    -2.278000000     4.762000000
H    -3.109000000    -1.775000000     5.958000000
O    -4.291000000    -2.989000000    -4.073000000
H    -4.780000000    -3.616000000    -3.540000000
H    -3.977000000    -3.501000000    -4.818000000
O     5.712000000    -3.401000000    -4.492000000
H     4.843000000    -3.001000000    -4.519000000
H     5.880000000    -3.672000000    -5.394000000
O     1.277000000    -2.505000000     4.494000000
H     1.444000000    -2.965000000     3.671000000
H     0.335000000    -2.602000000     4.636000000
O     3.083000000    -5.265000000     0.463000000
H     2.682000000    -5.587000000    -0.344000000
H     3.980000000    -5.044000000     0.212000000
O    -1.084000000     4.552000000     3.650000000
H    -0.501000000     4.895000000     2.974000000
H    -0.978000000     3.602000000     3.599000000
O     2.775000000    -0.160000000    -4.509000000
H     2.473000000    -0.078000000    -5.413000000
H     2.481000000    -1.029000000    -4.235000000
O     1.973000000     2.395000000    -4.310000000
H     1.405000000     2.556000000    -3.557000000
H     2.216000000     1.472000000    -4.234000000
O     5.343000000    -3.537000000    -0.533000000
H     5.845000000    -3.880000000    -1.273000000
H     5.076000000    -2.661000000    -0.811000000
O    -0.723000000    -4.498000000    -3.614000000
H    -1.176000000    -5.316000000    -3.818000000
H    -0.870000000    -4.370000000    -2.676000000
O    -3.992000000    -2.681000000    -0.509000000
H    -3.584000000    -3.223000000     0.167000000
H    -4.122000000    -3.277000000    -1.246000000
O    -4.081000000     3.868000000     3.356000000
H    -3.676000000     3.858000000     4.223000000
H    -4.298000000     2.952000000     3.182000000
O    -0.853000000    -1.890000000    -5.299000000
H    -0.884000000    -2.422000000    -4.504000000
H     0.062000000    -1.928000000    -5.577000000
O     3.599000000     2.589000000     3.591000000
H     3.813000000     2.770000000     2.676000000
H     2.739000000     2.172000000     3.557000000
O    -4.459000000    -0.388000000    -2.619000000
H    -4.250000000    -0.939000000    -3.373000000
H    -3.741000000    -0.539000000    -2.004000000
O    -4.845000000     2.904000000     0.173000000
H    -5.632000000     3.205000000     0.627000000
H    -4.243000000     3.648000000     0.219000000
O     0.085000000     2.949000000    -2.243000000
H     0.063000000     3.645000000    -1.587000000
H     0.016000000     2.140000000    -1.736000000
O     4.215000000     3.115000000     0.513000000
H     4.769000000     2.392000000     0.805000000
H     4.244000000     3.069000000    -0.443000000
O     1.373000000     5.818000000     2.281000000
H     1.529000000     6.621000000     2.777000000
H     2.237000000     5.565000000     1.956000000
O     1.478000000    -2.587000000    -6.580000000
H     1.141000000    -3.466000000    -6.751000000
H     2.281000000    -2.533000000    -7.098000000
O    -2.899000000     0.161000000    -5.462000000
H    -2.698000000     0.779000000    -4.760000000
H    -2.279000000    -0.557000000    -5.335000000
