144
-2829.18451
O     2.986000000     1.612000000    -3.752000000
H     3.288000000     0.706000000    -3.684000000
H     3.077000000     1.962000000    -2.866000000
O     4.078000000     3.711000000     6.241000000
H     3.899000000     3.366000000     7.116000000
H     3.713000000     3.057000000     5.646000000
O     2.344000000     0.484000000     5.998000000
H     3.130000000     0.033000000     5.690000000
H     1.869000000     0.711000000     5.198000000
O    -2.096000000    -3.669000000     3.448000000
H    -1.738000000    -3.025000000     4.059000000
H    -1.947000000    -4.513000000     3.875000000
O    -4.048000000     1.646000000     1.114000000
H    -4.280000000     1.524000000     2.034000000
H    -3.648000000     0.816000000     0.855000000
O    -3.164000000    -1.286000000     0.636000000
H    -3.409000000    -1.465000000    -0.272000000
H    -2.349000000    -1.772000000     0.764000000
O    -6.758000000     0.101000000     0.649000000
H    -6.003000000     0.663000000     0.475000000
H    -7.500000000     0.574000000     0.271000000
O     1.820000000     5.723000000     3.650000000
H     0.960000000     6.008000000     3.342000000
H     2.114000000     6.430000000     4.226000000
O    -1.251000000    -2.861000000     0.981000000
H    -1.622000000    -3.247000000     1.775000000
H    -0.373000000    -2.581000000     1.238000000
O     5.393000000    -2.709000000     3.003000000
H     5.089000000    -3.250000000     2.274000000
H     5.172000000    -3.215000000     3.785000000
O     3.795000000    -3.447000000     0.536000000
H     3.222000000    -4.070000000     0.983000000
H     3.556000000    -3.522000000    -0.388000000
O    -4.782000000     5.150000000     3.278000000
H    -3.951000000     4.768000000     3.558000000
H    -5.319000000     5.164000000     4.070000000
O     0.210000000    -0.874000000     7.937000000
H     0.098000000    -0.117000000     7.362000000
H     0.832000000    -1.436000000     7.475000000
O     6.746000000    -0.517000000    -0.880000000
H     6.835000000    -0.354000000    -1.819000000
H     6.069000000     0.097000000    -0.594000000
O     2.241000000     3.973000000    -5.226000000
H     1.428000000     4.408000000    -4.971000000
H     2.310000000     3.226000000    -4.633000000
O    -1.857000000     3.563000000     6.139000000
H    -2.036000000     3.571000000     5.199000000
H    -0.993000000     3.968000000     6.222000000
O     4.510000000     1.581000000     0.935000000
H     4.389000000     0.865000000     1.559000000
H     5.052000000     2.217000000     1.401000000
O     1.625000000    -4.240000000     2.044000000
H     1.267000000    -5.011000000     2.486000000
H     1.910000000    -3.667000000     2.756000000
O     0.184000000     3.818000000    -0.670000000
H    -0.595000000     4.151000000    -0.224000000
H     0.451000000     3.059000000    -0.151000000
O    -2.323000000    -3.204000000    -6.288000000
H    -3.158000000    -3.579000000    -6.567000000
H    -2.326000000    -3.295000000    -5.335000000
O     6.693000000    -3.346000000    -0.488000000
H     6.485000000    -2.899000000    -1.309000000
H     5.986000000    -3.095000000     0.107000000
O    -1.065000000     6.219000000     3.539000000
H    -1.483000000     5.360000000     3.589000000
H    -1.231000000     6.515000000     2.644000000
O    -1.823000000     3.542000000    -2.971000000
H    -2.027000000     2.841000000    -3.590000000
H    -1.349000000     3.106000000    -2.264000000
O     0.838000000     4.334000000     6.510000000
H     1.569000000     4.093000000     5.940000000
H     1.072000000     3.973000000     7.365000000
O     2.964000000    -1.376000000    -6.340000000
H     2.110000000    -1.665000000    -6.661000000
H     3.414000000    -2.185000000    -6.096000000
O    -1.971000000     6.047000000    -1.972000000
H    -1.899000000     5.290000000    -2.553000000
H    -1.316000000     6.664000000    -2.299000000
O     2.149000000     3.105000000     4.370000000
H     1.492000000     2.624000000     3.867000000
H     2.068000000     4.009000000     4.066000000
O    -0.668000000    -1.719000000     4.967000000
H     0.004000000    -1.200000000     4.525000000
H    -1.197000000    -1.076000000     5.439000000
O    -0.932000000     0.767000000     5.994000000
H    -0.514000000     1.080000000     5.192000000
H    -1.396000000     1.531000000     6.337000000
O     2.208000000    -2.505000000     4.114000000
H     1.959000000    -1.584000000     4.033000000
H     2.295000000    -2.647000000     5.057000000
O    -2.084000000    -4.053000000    -3.508000000
H    -2.644000000    -4.748000000    -3.162000000
H    -1.232000000    -4.470000000    -3.630000000
O     0.085000000    -5.882000000    -3.363000000
H    -0.103000000    -5.851000000    -2.425000000
H    -0.268000000    -6.724000000    -3.650000000
O     4.249000000    -4.290000000     4.953000000
H     3.422000000    -3.885000000     4.693000000
H     4.126000000    -5.222000000     4.772000000
O     4.651000000    -5.726000000    -1.205000000
H     3.958000000    -5.211000000    -1.618000000
H     5.381000000    -5.114000000    -1.113000000
O     1.674000000    -3.089000000     6.989000000
H     2.275000000    -3.454000000     7.638000000
H     0.806000000    -3.362000000     7.286000000
O    -2.175000000     3.485000000     3.528000000
H    -2.176000000     3.669000000     2.589000000
H    -1.478000000     2.840000000     3.645000000
O     3.464000000    -3.258000000    -2.182000000
H     2.617000000    -3.475000000    -2.572000000
H     4.107000000    -3.557000000    -2.825000000
O    -1.980000000     1.131000000    -5.132000000
H    -1.158000000     1.583000000    -5.319000000
H    -1.959000000     0.354000000    -5.690000000
O     0.939000000    -4.843000000    -5.714000000
H     0.117000000    -5.203000000    -6.045000000
H     0.878000000    -4.940000000    -4.764000000
O    -0.543000000     2.299000000    -7.555000000
H     0.170000000     1.665000000    -7.617000000
H    -0.732000000     2.536000000    -8.463000000
O     2.761000000     1.426000000     8.667000000
H     2.280000000     1.118000000     7.900000000
H     2.982000000     0.629000000     9.148000000
O    -0.905000000    -4.981000000    -0.903000000
H    -0.336000000    -4.609000000    -0.229000000
H    -1.538000000    -4.289000000    -1.092000000
O    -2.493000000     4.045000000     0.634000000
H    -3.054000000     4.738000000     0.286000000
H    -3.003000000     3.243000000     0.519000000
O     4.137000000     0.060000000     3.124000000
H     4.301000000    -0.877000000     3.014000000
H     3.192000000     0.152000000     3.008000000
O    -3.736000000    -2.098000000    -1.977000000
H    -3.152000000    -2.767000000    -2.335000000
H    -3.730000000    -1.401000000    -2.634000000
O    -3.966000000     0.063000000    -3.665000000
H    -4.668000000     0.698000000    -3.521000000
H    -3.357000000     0.509000000    -4.255000000
O     3.993000000     2.972000000    -1.103000000
H     3.573000000     3.632000000    -0.550000000
H     4.363000000     2.342000000    -0.485000000
O    -1.466000000    -0.792000000    -7.348000000
H    -1.924000000    -1.631000000    -7.396000000
H    -0.584000000    -0.983000000    -7.669000000
