144
-2809.87641
O    -2.355000000     3.549000000    -2.568000000
H    -1.689000000     3.262000000    -3.192000000
H    -3.115000000     3.000000000    -2.759000000
O    -0.959000000     4.438000000     3.068000000
H    -0.562000000     3.743000000     3.593000000
H    -1.901000000     4.334000000     3.206000000
O    -0.081000000    -2.218000000    -5.909000000
H     0.262000000    -1.584000000    -6.537000000
H    -0.992000000    -2.349000000    -6.174000000
O     1.299000000    -0.393000000     5.030000000
H     1.582000000     0.294000000     4.427000000
H     1.895000000    -1.122000000     4.857000000
O    -4.889000000    -3.345000000     2.103000000
H    -4.575000000    -3.183000000     1.214000000
H    -4.387000000    -2.740000000     2.649000000
O     5.768000000    -0.496000000    -1.160000000
H     5.710000000    -1.291000000    -0.630000000
H     5.481000000     0.204000000    -0.573000000
O    -1.077000000     2.617000000    -4.859000000
H    -0.163000000     2.340000000    -4.923000000
H    -1.338000000     2.793000000    -5.763000000
O     3.703000000     0.738000000    -4.377000000
H     3.169000000    -0.046000000    -4.248000000
H     4.580000000     0.481000000    -4.091000000
O    -6.712000000    -1.355000000    -1.191000000
H    -6.301000000    -0.794000000    -0.533000000
H    -7.385000000    -1.836000000    -0.708000000
O    -1.042000000    -2.504000000     1.358000000
H    -0.356000000    -3.117000000     1.623000000
H    -0.591000000    -1.865000000     0.807000000
O    -3.410000000    -5.998000000    -1.367000000
H    -3.493000000    -5.355000000    -0.663000000
H    -2.938000000    -5.535000000    -2.059000000
O    -0.543000000     3.349000000     7.527000000
H    -0.480000000     2.628000000     8.154000000
H    -0.798000000     2.930000000     6.705000000
O     2.310000000    -2.919000000     4.699000000
H     1.867000000    -3.660000000     4.288000000
H     2.229000000    -3.082000000     5.639000000
O     7.008000000     0.542000000     1.213000000
H     6.717000000    -0.339000000     0.978000000
H     6.200000000     1.050000000     1.286000000
O    -0.764000000    -1.068000000     6.422000000
H    -1.126000000    -1.831000000     5.973000000
H    -0.052000000    -0.772000000     5.855000000
O     3.678000000     5.772000000     1.965000000
H     4.259000000     5.234000000     2.503000000
H     2.963000000     5.183000000     1.722000000
O     4.439000000    -1.682000000     3.053000000
H     3.855000000    -2.211000000     3.596000000
H     3.862000000    -1.045000000     2.632000000
O     3.287000000     1.562000000     6.731000000
H     4.087000000     2.057000000     6.904000000
H     3.082000000     1.749000000     5.815000000
O     5.445000000    -2.695000000     0.521000000
H     5.186000000    -2.294000000     1.351000000
H     6.261000000    -3.154000000     0.722000000
O    -0.819000000     6.881000000     1.275000000
H    -1.526000000     7.236000000     1.814000000
H    -0.947000000     5.933000000     1.308000000
O    -4.036000000     4.344000000     3.401000000
H    -4.558000000     4.920000000     2.843000000
H    -4.297000000     4.574000000     4.293000000
O     4.180000000     1.969000000     4.240000000
H     4.944000000     1.430000000     4.443000000
H     3.791000000     1.553000000     3.470000000
O    -6.836000000     2.499000000    -0.119000000
H    -6.203000000     3.111000000    -0.495000000
H    -7.586000000     2.536000000    -0.712000000
O    -6.619000000    -4.004000000    -2.576000000
H    -7.473000000    -4.207000000    -2.196000000
H    -6.423000000    -3.120000000    -2.266000000
O    -4.908000000    -3.009000000    -4.836000000
H    -5.082000000    -3.926000000    -4.626000000
H    -5.715000000    -2.552000000    -4.601000000
O     2.660000000     1.737000000    -1.881000000
H     1.899000000     1.162000000    -1.795000000
H     3.061000000     1.480000000    -2.711000000
O     2.480000000    -1.788000000    -4.253000000
H     2.776000000    -2.679000000    -4.067000000
H     1.598000000    -1.898000000    -4.608000000
O     1.435000000     3.926000000     5.366000000
H     1.829000000     3.156000000     4.957000000
H     1.070000000     3.599000000     6.189000000
O     2.733000000    -4.560000000    -3.957000000
H     2.727000000    -5.506000000    -3.813000000
H     2.941000000    -4.460000000    -4.886000000
O    -3.105000000     0.693000000    -5.449000000
H    -2.726000000    -0.186000000    -5.424000000
H    -2.657000000     1.166000000    -4.748000000
O     6.654000000    -2.997000000     4.002000000
H     7.102000000    -2.479000000     4.670000000
H     5.919000000    -2.449000000     3.727000000
O    -0.985000000     2.029000000     5.310000000
H    -0.418000000     1.282000000     5.121000000
H    -1.860000000     1.737000000     5.052000000
O     3.675000000    -4.808000000     0.403000000
H     4.013000000    -4.911000000     1.293000000
H     4.096000000    -4.012000000     0.078000000
O     0.163000000    -4.903000000    -2.787000000
H     0.967000000    -4.789000000    -3.293000000
H    -0.541000000    -4.744000000    -3.416000000
O    -3.365000000     1.537000000     3.714000000
H    -3.807000000     1.505000000     4.563000000
H    -3.604000000     2.390000000     3.352000000
O    -2.544000000    -4.673000000    -4.033000000
H    -3.022000000    -3.877000000    -4.266000000
H    -2.234000000    -5.020000000    -4.869000000
O    -2.742000000    -2.051000000    -6.469000000
H    -3.476000000    -2.282000000    -5.900000000
H    -3.151000000    -1.664000000    -7.243000000
O    -3.292000000    -1.014000000     2.896000000
H    -3.056000000    -0.106000000     3.090000000
H    -2.468000000    -1.425000000     2.636000000
O     0.390000000    -4.943000000    -0.192000000
H     0.430000000    -4.813000000    -1.139000000
H     1.304000000    -4.925000000     0.091000000
O    -5.279000000     0.301000000     0.606000000
H    -4.746000000     0.269000000     1.400000000
H    -5.689000000     1.166000000     0.628000000
O     1.555000000     2.106000000    -5.216000000
H     1.816000000     3.026000000    -5.270000000
H     2.375000000     1.632000000    -5.082000000
O     4.504000000     1.294000000     0.442000000
H     3.834000000     0.944000000     1.029000000
H     4.013000000     1.789000000    -0.214000000
O    -3.208000000    -3.370000000    -0.064000000
H    -2.409000000    -3.099000000     0.389000000
H    -3.497000000    -2.586000000    -0.530000000
O     5.590000000     4.249000000     3.560000000
H     5.117000000     3.517000000     3.954000000
H     6.444000000     4.243000000     3.992000000
O     1.628000000     4.000000000     1.741000000
H     1.896000000     3.186000000     2.166000000
H     0.788000000     4.217000000     2.145000000
O    -4.662000000     1.610000000    -2.130000000
H    -5.555000000     1.636000000    -2.475000000
H    -4.765000000     1.334000000    -1.219000000
O     0.698000000     0.277000000    -7.154000000
H     1.525000000     0.276000000    -7.635000000
H     0.940000000     0.527000000    -6.262000000
O     0.050000000     6.468000000     4.581000000
H     0.592000000     5.763000000     4.935000000
H    -0.507000000     6.039000000     3.932000000
