144
-2795.16020
O    -2.094000000     4.071000000    -3.034000000
H    -1.586000000     4.170000000    -3.839000000
H    -2.888000000     3.611000000    -3.306000000
O    -1.704000000     4.695000000     3.867000000
H    -1.165000000     3.996000000     4.238000000
H    -2.496000000     4.697000000     4.403000000
O     2.451000000    -4.768000000     2.652000000
H     2.206000000    -5.241000000     1.857000000
H     2.227000000    -5.366000000     3.365000000
O     2.184000000    -2.963000000    -4.957000000
H     2.593000000    -3.018000000    -5.820000000
H     1.551000000    -3.681000000    -4.945000000
O     5.179000000    -0.245000000     4.961000000
H     5.736000000     0.451000000     5.309000000
H     4.948000000    -0.772000000     5.726000000
O     1.685000000    -1.002000000     5.582000000
H     1.767000000    -0.601000000     4.716000000
H     2.146000000    -1.837000000     5.504000000
O     0.864000000     2.244000000    -5.649000000
H     1.336000000     1.509000000    -5.257000000
H     0.801000000     2.890000000    -4.946000000
O     3.809000000     0.651000000    -1.689000000
H     3.545000000    -0.266000000    -1.619000000
H     4.750000000     0.644000000    -1.514000000
O    -4.596000000    -0.211000000    -0.116000000
H    -4.755000000     0.729000000    -0.204000000
H    -3.687000000    -0.275000000     0.177000000
O     1.176000000     5.588000000    -0.968000000
H     0.341000000     5.583000000    -0.500000000
H     1.305000000     4.679000000    -1.238000000
O     4.961000000    -4.876000000     0.911000000
H     4.281000000    -5.307000000     1.429000000
H     5.493000000    -4.408000000     1.555000000
O    -0.989000000    -2.903000000     2.833000000
H    -1.439000000    -3.382000000     2.137000000
H    -0.062000000    -2.963000000     2.604000000
O    -1.594000000    -3.865000000     0.286000000
H    -2.391000000    -3.442000000    -0.033000000
H    -1.142000000    -4.154000000    -0.508000000
O     2.252000000    -3.591000000     6.359000000
H     1.828000000    -4.449000000     6.344000000
H     2.539000000    -3.482000000     7.266000000
O    -0.800000000     0.312000000     5.941000000
H    -0.001000000    -0.213000000     5.982000000
H    -1.338000000    -0.012000000     6.663000000
O     4.453000000     4.805000000     2.015000000
H     4.838000000     4.146000000     1.436000000
H     3.526000000     4.568000000     2.063000000
O     3.979000000    -2.602000000     3.116000000
H     3.408000000    -1.839000000     3.199000000
H     3.389000000    -3.320000000     2.888000000
O     3.306000000     3.012000000     7.455000000
H     2.847000000     2.330000000     7.945000000
H     3.251000000     2.730000000     6.542000000
O     6.503000000    -2.374000000     1.963000000
H     6.750000000    -2.246000000     2.879000000
H     5.551000000    -2.279000000     1.956000000
O    -1.428000000     4.947000000    -0.655000000
H    -2.178000000     4.778000000    -0.085000000
H    -1.714000000     4.658000000    -1.521000000
O    -3.622000000     3.245000000     2.357000000
H    -3.853000000     4.130000000     2.075000000
H    -3.624000000     3.291000000     3.313000000
O     5.341000000     0.284000000     2.341000000
H     5.208000000     0.139000000     3.277000000
H     4.574000000    -0.110000000     1.926000000
O    -1.324000000     6.767000000     2.166000000
H    -2.079000000     6.681000000     1.585000000
H    -1.347000000     5.977000000     2.708000000
O    -6.702000000    -3.046000000    -3.005000000
H    -6.545000000    -3.347000000    -2.110000000
H    -6.051000000    -2.359000000    -3.145000000
O    -3.328000000    -1.728000000    -5.308000000
H    -3.894000000    -1.678000000    -6.078000000
H    -3.929000000    -1.679000000    -4.565000000
O     1.786000000     2.981000000    -1.376000000
H     1.053000000     2.450000000    -1.066000000
H     2.558000000     2.437000000    -1.220000000
O     2.872000000    -1.854000000    -2.498000000
H     2.344000000    -1.869000000    -1.699000000
H     2.414000000    -2.443000000    -3.098000000
O     3.445000000     2.130000000     4.892000000
H     2.653000000     1.874000000     4.420000000
H     3.976000000     1.334000000     4.918000000
O     2.012000000    -5.618000000    -3.077000000
H     2.821000000    -5.211000000    -2.768000000
H     2.300000000    -6.414000000    -3.524000000
O    -4.716000000    -1.091000000    -3.023000000
H    -4.688000000    -1.277000000    -2.084000000
H    -4.725000000    -0.135000000    -3.077000000
O    -4.003000000    -5.552000000    -2.654000000
H    -4.396000000    -5.299000000    -1.818000000
H    -3.543000000    -4.767000000    -2.950000000
O     2.317000000     0.336000000     7.772000000
H     2.218000000    -0.322000000     7.084000000
H     1.603000000     0.153000000     8.383000000
O     5.882000000    -3.867000000     5.044000000
H     5.964000000    -3.330000000     5.833000000
H     5.086000000    -3.546000000     4.619000000
O    -0.391000000     2.604000000     4.683000000
H     0.297000000     2.443000000     4.038000000
H    -0.523000000     1.757000000     5.110000000
O    -0.739000000    -4.862000000    -2.137000000
H     0.052000000    -5.100000000    -2.621000000
H    -1.316000000    -4.475000000    -2.796000000
O    -2.698000000     0.849000000     1.951000000
H    -1.903000000     0.740000000     1.430000000
H    -2.849000000     1.795000000     1.963000000
O    -2.115000000    -3.934000000    -4.340000000
H    -2.447000000    -3.065000000    -4.565000000
H    -1.477000000    -4.131000000    -5.026000000
O    -1.154000000    -0.709000000    -6.827000000
H    -1.687000000    -0.930000000    -6.064000000
H    -0.295000000    -0.493000000    -6.465000000
O    -3.680000000    -1.739000000     2.609000000
H    -3.417000000    -0.825000000     2.504000000
H    -2.961000000    -2.140000000     3.098000000
O     1.187000000    -6.029000000     0.514000000
H     0.386000000    -6.130000000     1.030000000
H     0.899000000    -5.606000000    -0.295000000
O    -5.068000000     2.419000000    -0.540000000
H    -4.874000000     3.321000000    -0.796000000
H    -5.640000000     2.092000000    -1.235000000
O     2.050000000     0.462000000    -4.156000000
H     2.654000000     0.908000000    -3.562000000
H     2.197000000    -0.469000000    -3.992000000
O     5.098000000     2.531000000     0.527000000
H     5.086000000     1.977000000     1.308000000
H     5.681000000     2.076000000    -0.080000000
O    -3.955000000    -2.872000000    -0.631000000
H    -4.364000000    -2.066000000    -0.314000000
H    -4.574000000    -3.563000000    -0.395000000
O     5.499000000     4.271000000     4.546000000
H     4.738000000     3.741000000     4.785000000
H     5.253000000     4.682000000     3.717000000
O     2.063000000     3.771000000     2.175000000
H     1.891000000     2.852000000     2.377000000
H     1.219000000     4.113000000     1.879000000
O    -5.010000000     3.088000000    -3.742000000
H    -5.202000000     2.816000000    -4.639000000
H    -5.635000000     2.601000000    -3.205000000
O     0.669000000     5.479000000     5.528000000
H     0.654000000     4.610000000     5.129000000
H     0.543000000     6.082000000     4.795000000
