144
-2826.38980
O    -2.094000000     4.580000000    -5.413000000
H    -1.752000000     3.693000000    -5.522000000
H    -1.319000000     5.118000000    -5.253000000
O    -3.582000000     5.408000000    -0.767000000
H    -2.966000000     6.134000000    -0.669000000
H    -3.614000000     5.247000000    -1.710000000
O     0.769000000     5.139000000    -0.216000000
H     1.212000000     4.630000000    -0.894000000
H     0.697000000     6.019000000    -0.585000000
O     0.435000000    -1.848000000     4.243000000
H     1.027000000    -2.036000000     3.514000000
H     0.189000000    -0.931000000     4.121000000
O     1.469000000     2.870000000    -4.043000000
H     0.612000000     3.271000000    -4.185000000
H     1.362000000     1.965000000    -4.337000000
O     3.708000000    -2.159000000     4.103000000
H     3.554000000    -2.903000000     4.684000000
H     3.094000000    -2.288000000     3.379000000
O     1.517000000    -3.416000000     6.170000000
H     0.897000000    -3.582000000     6.880000000
H     1.026000000    -2.886000000     5.543000000
O    -0.066000000    -5.392000000     4.628000000
H     0.846000000    -5.210000000     4.403000000
H    -0.571000000    -5.005000000     3.913000000
O    -2.724000000     0.066000000    -5.310000000
H    -2.550000000    -0.296000000    -4.440000000
H    -2.700000000    -0.693000000    -5.893000000
O     2.629000000     4.079000000    -1.937000000
H     3.283000000     4.406000000    -2.555000000
H     2.076000000     3.498000000    -2.460000000
O     5.474000000     1.941000000    -0.887000000
H     6.325000000     2.024000000    -1.317000000
H     4.939000000     1.446000000    -1.509000000
O    -4.739000000     2.029000000    -5.717000000
H    -4.849000000     2.398000000    -4.841000000
H    -3.958000000     1.479000000    -5.649000000
O     1.040000000     0.144000000    -4.396000000
H     1.896000000    -0.271000000    -4.292000000
H     0.501000000    -0.521000000    -4.826000000
O     2.000000000     3.816000000     1.837000000
H     1.726000000     4.509000000     1.236000000
H     2.936000000     3.709000000     1.669000000
O    -5.564000000    -2.936000000    -2.985000000
H    -5.543000000    -1.980000000    -3.019000000
H    -4.910000000    -3.167000000    -2.326000000
O     0.286000000    -4.546000000    -1.030000000
H     1.010000000    -5.046000000    -0.654000000
H     0.528000000    -4.428000000    -1.949000000
O    -3.684000000     5.468000000    -3.446000000
H    -3.039000000     5.152000000    -4.079000000
H    -4.381000000     5.847000000    -3.982000000
O    -3.190000000    -3.228000000     1.873000000
H    -3.838000000    -2.554000000     1.666000000
H    -3.458000000    -3.564000000     2.728000000
O     4.591000000     4.665000000    -0.043000000
H     3.831000000     4.811000000    -0.606000000
H     4.765000000     3.726000000    -0.114000000
O     4.992000000    -2.518000000     0.682000000
H     4.919000000    -2.298000000    -0.247000000
H     4.437000000    -1.877000000     1.125000000
O     2.657000000     0.575000000     6.825000000
H     3.576000000     0.794000000     6.979000000
H     2.636000000     0.250000000     5.925000000
O     3.545000000    -4.915000000     2.210000000
H     3.449000000    -5.074000000     3.149000000
H     3.308000000    -3.995000000     2.097000000
O    -5.383000000    -0.160000000    -3.494000000
H    -6.018000000     0.272000000    -2.922000000
H    -5.477000000     0.287000000    -4.335000000
O     7.222000000    -3.022000000     2.106000000
H     7.353000000    -3.849000000     1.642000000
H     6.341000000    -2.744000000     1.855000000
O     4.596000000     1.430000000     1.910000000
H     4.100000000     0.650000000     1.662000000
H     5.030000000     1.705000000     1.102000000
O    -0.915000000     2.178000000    -6.223000000
H    -1.337000000     2.197000000    -7.082000000
H    -1.337000000     1.452000000    -5.764000000
O    -4.170000000     1.156000000     2.967000000
H    -4.403000000     1.614000000     2.160000000
H    -3.415000000     0.618000000     2.728000000
O     2.493000000     0.733000000     4.056000000
H     2.849000000     1.466000000     3.554000000
H     2.926000000    -0.039000000     3.693000000
O    -4.723000000     2.782000000     0.827000000
H    -5.317000000     3.531000000     0.883000000
H    -3.974000000     3.107000000     0.327000000
O     4.279000000     0.235000000    -2.837000000
H     3.363000000     0.262000000    -2.560000000
H     4.517000000    -0.691000000    -2.783000000
O     2.105000000    -1.369000000    -2.383000000
H     1.405000000    -0.946000000    -1.886000000
H     1.739000000    -2.215000000    -2.641000000
O     2.993000000    -5.246000000    -0.467000000
H     3.057000000    -4.972000000     0.448000000
H     3.829000000    -4.987000000    -0.853000000
O    -1.076000000    -5.002000000     1.317000000
H    -1.578000000    -4.187000000     1.352000000
H    -0.324000000    -4.797000000     0.761000000
O    -1.834000000    -2.584000000    -4.065000000
H    -1.968000000    -3.141000000    -3.298000000
H    -2.536000000    -2.833000000    -4.667000000
O    -2.546000000    -2.582000000     5.394000000
H    -1.684000000    -2.936000000     5.610000000
H    -2.396000000    -1.644000000     5.273000000
O     5.468000000     0.068000000     4.068000000
H     5.222000000     0.611000000     3.319000000
H     4.842000000    -0.655000000     4.055000000
O    -0.277000000     2.193000000     1.775000000
H    -0.488000000     1.434000000     1.231000000
H     0.640000000     2.381000000     1.580000000
O    -2.205000000    -4.691000000    -2.379000000
H    -2.746000000    -5.194000000    -1.769000000
H    -1.340000000    -4.670000000    -1.969000000
O    -1.566000000     4.672000000     2.141000000
H    -0.969000000     3.935000000     2.010000000
H    -1.401000000     5.249000000     1.396000000
O    -5.064000000    -1.303000000     1.150000000
H    -5.680000000    -0.797000000     0.620000000
H    -5.432000000    -1.277000000     2.033000000
O    -4.757000000    -4.213000000    -0.528000000
H    -5.165000000    -5.073000000    -0.431000000
H    -4.213000000    -4.116000000     0.253000000
O    -0.607000000     0.520000000     3.957000000
H    -0.952000000     0.918000000     4.756000000
H    -0.218000000     1.249000000     3.475000000
O     4.165000000     2.430000000    -4.678000000
H     4.400000000     1.568000000    -4.336000000
H     3.265000000     2.568000000    -4.381000000
O     3.176000000    -5.143000000     5.170000000
H     3.259000000    -5.704000000     5.942000000
H     2.669000000    -4.390000000     5.474000000
O    -6.292000000     4.873000000    -0.379000000
H    -6.679000000     5.282000000    -1.153000000
H    -5.355000000     5.052000000    -0.456000000
O    -4.916000000     3.059000000    -3.328000000
H    -4.847000000     3.997000000    -3.151000000
H    -5.676000000     2.775000000    -2.820000000
O    -6.874000000     0.197000000    -0.541000000
H    -6.456000000     0.911000000    -1.023000000
H    -7.770000000     0.174000000    -0.876000000
O    -1.315000000    -7.430000000     0.145000000
H    -1.179000000    -6.575000000     0.553000000
H    -0.543000000    -7.558000000    -0.407000000
