144
-2804.42358
O    -2.828000000     2.147000000    -6.444000000
H    -2.201000000     1.744000000    -7.044000000
H    -2.574000000     3.070000000    -6.415000000
O    -4.152000000     4.254000000    -1.293000000
H    -3.505000000     3.951000000    -1.930000000
H    -3.713000000     4.170000000    -0.447000000
O    -2.403000000     4.470000000     0.955000000
H    -2.306000000     5.371000000     1.264000000
H    -1.801000000     4.404000000     0.214000000
O    -0.217000000    -2.008000000     4.100000000
H     0.671000000    -2.089000000     3.751000000
H    -0.430000000    -1.080000000     4.000000000
O     0.885000000     2.629000000    -4.443000000
H     0.005000000     2.870000000    -4.154000000
H     0.859000000     1.676000000    -4.520000000
O     5.183000000    -0.353000000     3.746000000
H     4.510000000    -0.045000000     4.353000000
H     4.733000000    -0.418000000     2.903000000
O     3.531000000    -3.291000000     4.017000000
H     3.825000000    -2.872000000     4.825000000
H     3.081000000    -2.596000000     3.536000000
O     0.439000000     4.615000000    -0.924000000
H     0.451000000     5.545000000    -0.697000000
H     1.263000000     4.471000000    -1.388000000
O    -0.021000000    -6.510000000     3.485000000
H     0.013000000    -5.805000000     4.132000000
H    -0.488000000    -6.130000000     2.741000000
O     2.510000000     4.252000000    -2.809000000
H     2.788000000     5.148000000    -2.999000000
H     2.066000000     3.964000000    -3.606000000
O     5.501000000     1.179000000    -2.058000000
H     6.237000000     0.859000000    -2.578000000
H     4.821000000     0.514000000    -2.169000000
O    -5.214000000     0.797000000    -5.519000000
H    -5.228000000     1.280000000    -4.692000000
H    -4.476000000     1.170000000    -6.001000000
O     0.821000000     0.050000000    -4.564000000
H     1.120000000    -0.349000000    -3.747000000
H     0.449000000    -0.677000000    -5.063000000
O     6.018000000     3.497000000     2.421000000
H     5.220000000     3.982000000     2.210000000
H     6.044000000     2.788000000     1.778000000
O    -5.406000000    -3.361000000    -2.460000000
H    -5.855000000    -2.678000000    -1.961000000
H    -4.542000000    -3.426000000    -2.053000000
O    -0.364000000    -4.113000000    -1.640000000
H     0.288000000    -3.901000000    -0.972000000
H    -0.192000000    -3.492000000    -2.348000000
O    -2.846000000    -5.301000000     3.096000000
H    -3.726000000    -4.994000000     2.877000000
H    -2.657000000    -4.898000000     3.944000000
O    -5.290000000     1.915000000     3.116000000
H    -5.783000000     1.403000000     2.475000000
H    -5.953000000     2.235000000     3.728000000
O    -4.658000000     3.651000000    -4.560000000
H    -4.917000000     4.451000000    -5.017000000
H    -3.709000000     3.607000000    -4.674000000
O    -4.813000000    -3.499000000     2.184000000
H    -5.247000000    -3.206000000     1.383000000
H    -4.352000000    -2.724000000     2.504000000
O     5.093000000     3.715000000    -1.749000000
H     4.138000000     3.650000000    -1.751000000
H     5.394000000     2.813000000    -1.866000000
O     5.588000000    -1.997000000     0.396000000
H     5.267000000    -2.030000000    -0.505000000
H     4.918000000    -1.507000000     0.872000000
O     2.583000000    -4.878000000     1.964000000
H     1.636000000    -4.837000000     2.094000000
H     2.950000000    -4.443000000     2.734000000
O    -6.711000000    -0.159000000    -2.761000000
H    -6.606000000     0.792000000    -2.773000000
H    -6.274000000    -0.439000000    -1.958000000
O     7.227000000    -2.313000000     2.645000000
H     6.792000000    -2.193000000     1.800000000
H     6.607000000    -1.962000000     3.285000000
O    -2.352000000     6.951000000    -3.134000000
H    -2.018000000     7.310000000    -2.311000000
H    -2.235000000     6.005000000    -3.046000000
O     5.456000000     1.256000000     0.907000000
H     4.742000000     0.692000000     1.204000000
H     5.684000000     0.918000000     0.041000000
O    -7.070000000     0.899000000     0.739000000
H    -8.008000000     0.962000000     0.564000000
H    -6.791000000     1.803000000     0.882000000
O     2.079000000     0.178000000     5.096000000
H     1.129000000     0.294000000     5.069000000
H     2.276000000    -0.363000000     4.331000000
O    -1.461000000     4.403000000    -3.021000000
H    -0.748000000     4.379000000    -2.383000000
H    -1.046000000     4.694000000    -3.833000000
O    -6.724000000     4.045000000     0.105000000
H    -5.993000000     3.838000000    -0.478000000
H    -7.497000000     4.011000000    -0.458000000
O     4.179000000    -2.352000000    -2.308000000
H     3.271000000    -2.068000000    -2.202000000
H     4.347000000    -2.272000000    -3.246000000
O     1.614000000    -1.532000000    -2.144000000
H     1.260000000    -1.072000000    -1.382000000
H     0.859000000    -1.984000000    -2.522000000
O    -6.706000000    -1.093000000     3.309000000
H    -6.079000000    -0.758000000     2.667000000
H    -7.029000000    -1.909000000     2.926000000
O     2.322000000    -4.158000000    -0.659000000
H     2.592000000    -4.510000000     0.189000000
H     2.948000000    -3.457000000    -0.838000000
O    -1.276000000    -6.460000000     0.894000000
H    -1.972000000    -6.182000000     1.489000000
H    -1.094000000    -5.686000000     0.360000000
O    -2.052000000    -3.344000000    -5.672000000
H    -2.966000000    -3.373000000    -5.389000000
H    -1.943000000    -4.129000000    -6.209000000
O    -3.911000000    -0.715000000     2.189000000
H    -3.132000000    -0.349000000     1.770000000
H    -3.792000000    -0.529000000     3.120000000
O     6.836000000     1.838000000     4.436000000
H     6.445000000     2.532000000     3.906000000
H     6.373000000     1.043000000     4.171000000
O    -2.614000000     2.020000000     2.451000000
H    -2.540000000     2.746000000     1.830000000
H    -3.520000000     2.060000000     2.759000000
O    -2.938000000    -4.339000000    -1.108000000
H    -3.182000000    -5.260000000    -1.023000000
H    -2.027000000    -4.359000000    -1.402000000
O    -0.159000000    -2.625000000    -3.903000000
H    -0.893000000    -2.837000000    -4.479000000
H     0.589000000    -3.080000000    -4.290000000
O    -6.534000000    -1.574000000    -0.478000000
H    -6.746000000    -0.772000000    -0.001000000
H    -7.384000000    -1.961000000    -0.686000000
O    -0.587000000     0.790000000     4.150000000
H    -1.191000000     1.114000000     3.481000000
H    -1.005000000     1.018000000     4.980000000
O     3.714000000     4.825000000     1.512000000
H     3.492000000     5.298000000     0.710000000
H     2.870000000     4.540000000     1.864000000
O    -1.802000000    -3.811000000     5.088000000
H    -1.124000000    -3.213000000     4.775000000
H    -2.207000000    -3.351000000     5.824000000
O    -6.533000000     2.537000000    -3.094000000
H    -5.780000000     2.891000000    -3.567000000
H    -7.006000000     3.309000000    -2.782000000
O     3.923000000    -2.106000000     6.533000000
H     3.294000000    -2.179000000     7.251000000
H     4.070000000    -1.165000000     6.438000000
