144
-2809.91577
O    -0.431000000     1.066000000    -6.610000000
H    -1.246000000     1.332000000    -6.186000000
H    -0.666000000     0.954000000    -7.532000000
O    -1.858000000     2.177000000     1.052000000
H    -1.149000000     2.680000000     0.650000000
H    -1.714000000     1.280000000     0.753000000
O     0.860000000     5.198000000    -2.811000000
H     0.817000000     6.022000000    -2.325000000
H     0.971000000     5.464000000    -3.723000000
O     4.191000000    -3.780000000     4.261000000
H     3.538000000    -3.505000000     3.617000000
H     3.698000000    -3.874000000     5.076000000
O     2.097000000    -0.187000000    -5.615000000
H     1.555000000     0.375000000    -6.168000000
H     2.051000000    -1.048000000    -6.029000000
O    -5.413000000     0.250000000     2.092000000
H    -4.468000000     0.357000000     2.201000000
H    -5.696000000    -0.200000000     2.888000000
O    -5.055000000    -3.451000000     4.680000000
H    -4.444000000    -3.386000000     3.946000000
H    -5.480000000    -2.594000000     4.714000000
O    -4.464000000    -4.653000000     0.683000000
H    -3.990000000    -4.011000000     1.211000000
H    -5.135000000    -4.999000000     1.272000000
O    -4.532000000     1.039000000    -1.405000000
H    -3.867000000     1.574000000    -0.971000000
H    -4.724000000     1.507000000    -2.217000000
O     3.380000000    -0.905000000     7.730000000
H     3.213000000    -0.277000000     7.027000000
H     2.892000000    -0.563000000     8.478000000
O     1.984000000    -3.631000000     2.562000000
H     1.689000000    -2.801000000     2.937000000
H     1.230000000    -3.950000000     2.066000000
O    -0.939000000    -4.539000000     1.529000000
H    -1.333000000    -5.408000000     1.459000000
H    -0.469000000    -4.422000000     0.704000000
O     0.012000000     4.061000000     0.114000000
H     0.510000000     4.356000000    -0.648000000
H     0.468000000     4.446000000     0.862000000
O    -0.649000000     4.898000000     3.108000000
H     0.135000000     4.354000000     3.182000000
H    -1.180000000     4.658000000     3.868000000
O     3.919000000     0.311000000     2.019000000
H     3.110000000     0.646000000     2.405000000
H     4.478000000     1.083000000     1.927000000
O    -2.799000000    -1.179000000    -5.367000000
H    -3.262000000    -1.358000000    -4.549000000
H    -2.739000000    -0.224000000    -5.405000000
O     5.645000000    -1.882000000     2.586000000
H     5.052000000    -1.165000000     2.812000000
H     5.276000000    -2.646000000     3.029000000
O     3.732000000     1.691000000    -4.105000000
H     3.907000000     1.927000000    -5.016000000
H     3.079000000     0.993000000    -4.160000000
O     2.774000000    -3.432000000     6.645000000
H     2.694000000    -3.990000000     7.419000000
H     3.056000000    -2.584000000     6.990000000
O     4.057000000     4.320000000     0.204000000
H     3.880000000     4.070000000    -0.703000000
H     3.261000000     4.770000000     0.487000000
O     1.178000000     2.726000000     6.202000000
H     0.739000000     3.575000000     6.256000000
H     1.277000000     2.566000000     5.263000000
O     0.411000000    -0.795000000     6.349000000
H     0.600000000    -0.879000000     5.414000000
H     0.793000000     0.047000000     6.596000000
O     4.666000000    -1.240000000    -0.439000000
H     4.934000000    -1.598000000     0.407000000
H     3.780000000    -0.909000000    -0.288000000
O    -2.697000000    -3.445000000     6.518000000
H    -3.564000000    -3.672000000     6.182000000
H    -2.391000000    -2.746000000     5.940000000
O     1.403000000    -5.442000000     5.432000000
H     1.626000000    -4.592000000     5.810000000
H     0.541000000    -5.647000000     5.796000000
O     3.376000000     0.609000000     5.441000000
H     2.771000000     0.625000000     4.699000000
H     3.904000000     1.400000000     5.337000000
O    -3.149000000     1.576000000    -5.663000000
H    -3.430000000     1.985000000    -6.481000000
H    -3.472000000     2.163000000    -4.979000000
O     1.547000000     3.502000000     3.389000000
H     2.403000000     3.804000000     3.086000000
H     1.542000000     2.564000000     3.199000000
O    -4.617000000     3.839000000    -2.355000000
H    -4.754000000     4.068000000    -3.274000000
H    -3.690000000     4.021000000    -2.198000000
O    -1.930000000    -3.247000000    -2.162000000
H    -1.298000000    -3.341000000    -1.449000000
H    -1.394000000    -3.061000000    -2.933000000
O    -5.979000000    -1.335000000    -1.319000000
H    -5.602000000    -0.638000000    -0.781000000
H    -6.661000000    -0.899000000    -1.831000000
O     5.724000000     0.397000000    -2.433000000
H     5.031000000     0.877000000    -2.888000000
H     5.258000000    -0.164000000    -1.813000000
O     3.105000000    -1.053000000    -2.882000000
H     2.469000000    -0.874000000    -2.189000000
H     2.612000000    -0.938000000    -3.695000000
O    -1.946000000    -1.741000000     4.677000000
H    -0.996000000    -1.695000000     4.564000000
H    -2.246000000    -0.842000000     4.542000000
O     0.955000000    -4.130000000    -0.606000000
H     1.529000000    -3.364000000    -0.595000000
H     1.254000000    -4.642000000    -1.358000000
O    -3.104000000    -3.247000000     2.710000000
H    -2.949000000    -2.616000000     3.413000000
H    -2.230000000    -3.466000000     2.388000000
O    -4.139000000    -1.789000000    -3.146000000
H    -4.615000000    -1.321000000    -2.460000000
H    -3.455000000    -2.268000000    -2.679000000
O    -0.500000000    -2.811000000    -4.559000000
H    -0.867000000    -2.899000000    -5.439000000
H    -0.478000000    -1.867000000    -4.402000000
O    -1.545000000    -3.173000000    -6.992000000
H    -2.372000000    -3.589000000    -6.748000000
H    -1.703000000    -2.237000000    -6.868000000
O    -0.454000000    -2.552000000     8.453000000
H     0.052000000    -2.052000000     7.812000000
H    -1.203000000    -2.885000000     7.959000000
O    -2.060000000     4.889000000    -1.883000000
H    -1.136000000     4.656000000    -1.973000000
H    -2.108000000     5.797000000    -2.180000000
O    -2.014000000     0.216000000     7.228000000
H    -2.262000000     1.062000000     6.855000000
H    -1.172000000     0.012000000     6.820000000
O    -2.927000000     0.860000000     3.497000000
H    -2.620000000     1.672000000     3.094000000
H    -3.350000000     1.141000000     4.308000000
O     5.448000000     2.224000000     0.914000000
H     5.906000000     2.069000000     0.088000000
H     4.982000000     3.049000000     0.779000000
O     5.136000000     3.286000000     5.182000000
H     6.018000000     3.596000000     5.386000000
H     4.851000000     3.836000000     4.452000000
O    -3.104000000    -5.912000000    -1.214000000
H    -2.982000000    -5.385000000    -2.004000000
H    -3.590000000    -5.342000000    -0.618000000
O     3.331000000     3.900000000    -2.373000000
H     2.505000000     4.376000000    -2.459000000
H     3.253000000     3.172000000    -2.989000000
O     1.277000000    -2.374000000    -6.971000000
H     1.358000000    -2.065000000    -7.874000000
H     0.496000000    -2.926000000    -6.976000000
