144
-2823.11272
O    -5.926000000     0.968000000     2.157000000
H    -5.785000000     0.735000000     3.075000000
H    -5.205000000     0.546000000     1.690000000
O    -4.825000000     1.835000000     5.198000000
H    -4.563000000     1.980000000     4.289000000
H    -5.064000000     2.704000000     5.521000000
O     0.924000000    -1.197000000    -4.792000000
H     0.414000000    -0.470000000    -4.435000000
H     1.757000000    -0.802000000    -5.049000000
O     6.121000000    -0.776000000     4.398000000
H     7.038000000    -1.033000000     4.496000000
H     5.963000000    -0.805000000     3.455000000
O    -3.599000000     2.796000000    -3.653000000
H    -4.348000000     3.347000000    -3.426000000
H    -3.444000000     2.974000000    -4.581000000
O    -5.541000000    -1.905000000     3.214000000
H    -5.011000000    -2.088000000     2.438000000
H    -5.808000000    -2.768000000     3.530000000
O    -0.341000000     3.706000000     1.233000000
H    -1.206000000     3.543000000     0.856000000
H     0.216000000     3.898000000     0.480000000
O     6.477000000    -0.032000000    -1.539000000
H     5.856000000     0.566000000    -1.124000000
H     5.933000000    -0.733000000    -1.896000000
O     3.779000000     3.876000000     3.551000000
H     2.850000000     3.675000000     3.444000000
H     4.226000000     3.253000000     2.977000000
O     2.133000000    -3.074000000     3.116000000
H     1.308000000    -2.737000000     3.465000000
H     2.409000000    -3.735000000     3.751000000
O    -6.774000000     0.114000000     6.541000000
H    -7.352000000     0.392000000     5.830000000
H    -5.903000000     0.400000000     6.266000000
O    -2.012000000    -2.411000000    -3.873000000
H    -2.397000000    -2.673000000    -3.037000000
H    -2.248000000    -1.488000000    -3.967000000
O    -2.210000000     2.400000000     7.739000000
H    -2.492000000     1.589000000     7.316000000
H    -2.771000000     2.475000000     8.511000000
O    -1.894000000     5.231000000     2.657000000
H    -1.049000000     4.908000000     2.346000000
H    -2.131000000     4.635000000     3.367000000
O     0.085000000    -3.188000000     0.427000000
H     0.380000000    -3.113000000    -0.480000000
H     0.434000000    -2.407000000     0.858000000
O     6.893000000     3.860000000    -1.492000000
H     6.118000000     3.300000000    -1.530000000
H     7.235000000     3.737000000    -0.607000000
O    -3.344000000    -0.191000000    -3.349000000
H    -3.221000000     0.756000000    -3.404000000
H    -4.149000000    -0.357000000    -3.840000000
O     0.020000000     2.759000000    -1.432000000
H    -0.328000000     1.873000000    -1.328000000
H     0.943000000     2.630000000    -1.652000000
O    -0.150000000    -2.407000000     4.908000000
H     0.069000000    -2.621000000     5.815000000
H    -1.090000000    -2.228000000     4.925000000
O    -7.586000000     0.372000000    -0.379000000
H    -6.695000000     0.125000000    -0.627000000
H    -7.478000000     0.893000000     0.416000000
O    -4.727000000    -5.254000000     2.601000000
H    -3.936000000    -5.640000000     2.978000000
H    -4.434000000    -4.422000000     2.229000000
O     4.520000000     2.109000000    -1.266000000
H     3.758000000     2.600000000    -1.572000000
H     4.381000000     2.013000000    -0.324000000
O     3.950000000    -0.269000000    -5.487000000
H     4.319000000     0.564000000    -5.195000000
H     4.696000000    -0.868000000    -5.506000000
O     5.159000000    -2.110000000    -2.580000000
H     5.213000000    -3.019000000    -2.286000000
H     4.243000000    -1.867000000    -2.443000000
O    -2.126000000    -0.476000000     7.025000000
H    -2.954000000    -0.837000000     7.342000000
H    -2.002000000    -0.879000000     6.166000000
O     2.858000000    -3.303000000    -3.772000000
H     3.205000000    -2.704000000    -4.432000000
H     3.246000000    -4.151000000    -3.990000000
O     2.326000000     3.106000000    -2.808000000
H     1.887000000     3.190000000    -3.655000000
H     2.757000000     3.951000000    -2.677000000
O    -5.160000000    -0.616000000    -1.072000000
H    -4.585000000    -0.510000000    -0.314000000
H    -4.584000000    -0.493000000    -1.827000000
O     1.256000000     3.514000000     3.222000000
H     0.722000000     3.256000000     3.974000000
H     0.670000000     3.426000000     2.471000000
O     4.338000000    -2.726000000     1.514000000
H     4.538000000    -3.647000000     1.350000000
H     3.528000000    -2.743000000     2.024000000
O     5.048000000     2.224000000     1.788000000
H     5.018000000     1.275000000     1.911000000
H     5.909000000     2.389000000     1.404000000
O     0.439000000    -3.250000000    -2.405000000
H     1.295000000    -3.447000000    -2.785000000
H     0.046000000    -2.623000000    -3.013000000
O    -2.861000000    -1.370000000     4.572000000
H    -3.816000000    -1.418000000     4.625000000
H    -2.690000000    -0.605000000     4.023000000
O    -2.087000000     2.993000000     4.354000000
H    -2.109000000     2.103000000     4.002000000
H    -2.632000000     2.953000000     5.140000000
O    -0.716000000     1.495000000    -5.153000000
H    -1.129000000     2.273000000    -4.779000000
H     0.161000000     1.786000000    -5.403000000
O    -2.588000000     4.079000000    -1.422000000
H    -1.644000000     3.928000000    -1.378000000
H    -2.871000000     3.601000000    -2.202000000
O     0.040000000    -3.929000000    -5.491000000
H     0.923000000    -3.576000000    -5.389000000
H    -0.511000000    -3.357000000    -4.956000000
O     3.823000000     4.426000000     0.518000000
H     4.031000000     3.650000000     1.038000000
H     3.725000000     5.127000000     1.163000000
O    -3.605000000    -2.954000000     1.402000000
H    -3.632000000    -2.023000000     1.181000000
H    -2.700000000    -3.110000000     1.674000000
O    -7.561000000     3.421000000     1.596000000
H    -7.148000000     3.901000000     0.877000000
H    -6.885000000     2.813000000     1.897000000
O    -5.949000000    -3.219000000    -1.533000000
H    -6.763000000    -3.262000000    -1.031000000
H    -5.669000000    -2.307000000    -1.456000000
O     4.138000000     5.194000000    -2.171000000
H     4.524000000     5.147000000    -1.296000000
H     3.864000000     6.106000000    -2.264000000
O     1.489000000     2.859000000    -5.956000000
H     1.568000000     2.679000000    -6.893000000
H     1.706000000     3.787000000    -5.871000000
O    -8.308000000     0.244000000     4.087000000
H    -8.788000000    -0.479000000     3.682000000
H    -7.500000000     0.310000000     3.579000000
O    -3.292000000    -3.858000000    -1.430000000
H    -3.006000000    -3.402000000    -0.639000000
H    -4.247000000    -3.787000000    -1.416000000
O     6.007000000    -0.486000000     1.649000000
H     6.786000000    -0.666000000     1.122000000
H     5.358000000    -1.119000000     1.342000000
O    -4.687000000     4.138000000     2.854000000
H    -3.971000000     3.768000000     2.338000000
H    -4.468000000     5.067000000     2.936000000
O     5.782000000     2.136000000    -4.126000000
H     6.204000000     2.624000000    -3.419000000
H     5.617000000     2.792000000    -4.804000000
