144
-2820.24139
O    -0.797000000    -3.018000000     5.373000000
H    -0.787000000    -2.302000000     4.738000000
H    -1.596000000    -2.876000000     5.882000000
O    -3.112000000     3.539000000     7.145000000
H    -2.481000000     3.126000000     6.555000000
H    -2.572000000     3.996000000     7.790000000
O    -1.767000000     3.007000000    -0.249000000
H    -2.432000000     2.369000000    -0.511000000
H    -0.954000000     2.676000000    -0.630000000
O     0.043000000    -5.229000000    -0.257000000
H     0.739000000    -4.572000000    -0.281000000
H     0.094000000    -5.599000000     0.625000000
O     2.040000000     4.776000000    -3.352000000
H     1.141000000     4.993000000    -3.106000000
H     2.363000000     5.560000000    -3.795000000
O     1.796000000     3.212000000     6.756000000
H     2.264000000     2.530000000     7.238000000
H     2.342000000     3.379000000     5.987000000
O    -3.297000000     2.360000000    -5.409000000
H    -4.164000000     2.502000000    -5.788000000
H    -3.304000000     2.868000000    -4.598000000
O     0.840000000     3.781000000     3.656000000
H     0.298000000     4.227000000     4.308000000
H     0.437000000     2.918000000     3.560000000
O     0.827000000     7.354000000     0.177000000
H     0.977000000     7.674000000     1.067000000
H     0.773000000     6.403000000     0.270000000
O     2.617000000    -3.429000000     0.966000000
H     2.965000000    -4.321000000     0.969000000
H     2.730000000    -3.125000000     1.867000000
O     1.497000000    -0.419000000     5.477000000
H     0.542000000    -0.451000000     5.432000000
H     1.684000000     0.145000000     6.227000000
O    -0.808000000    -5.008000000     3.575000000
H    -1.448000000    -4.567000000     3.017000000
H    -0.626000000    -4.380000000     4.274000000
O    -0.816000000     2.130000000     6.089000000
H    -0.836000000     1.741000000     5.214000000
H     0.067000000     2.490000000     6.171000000
O    -3.539000000    -0.761000000     3.718000000
H    -3.777000000     0.166000000     3.707000000
H    -2.598000000    -0.765000000     3.892000000
O    -0.579000000     4.843000000     5.815000000
H    -0.192000000     4.230000000     6.441000000
H    -1.004000000     5.505000000     6.361000000
O    -0.892000000     0.451000000    -6.967000000
H    -0.531000000    -0.133000000    -6.300000000
H    -0.439000000     1.282000000    -6.828000000
O    -3.153000000     3.828000000    -3.104000000
H    -2.296000000     3.826000000    -2.678000000
H    -3.751000000     4.164000000    -2.436000000
O    -1.097000000    -0.101000000     7.706000000
H    -1.774000000    -0.538000000     7.189000000
H    -1.152000000     0.818000000     7.445000000
O     0.423000000    -1.321000000    -5.543000000
H     0.010000000    -2.184000000    -5.507000000
H     1.250000000    -1.471000000    -6.000000000
O     0.127000000     4.939000000     1.257000000
H    -0.323000000     4.262000000     0.752000000
H     0.546000000     4.464000000     1.975000000
O     1.979000000    -2.430000000     3.625000000
H     1.272000000    -2.209000000     3.018000000
H     1.945000000    -1.746000000     4.293000000
O    -3.495000000    -3.032000000    -4.670000000
H    -4.202000000    -2.931000000    -4.032000000
H    -3.335000000    -2.146000000    -4.993000000
O    -2.954000000    -1.815000000     6.384000000
H    -3.508000000    -2.288000000     7.005000000
H    -3.562000000    -1.262000000     5.893000000
O    -1.313000000     5.925000000     3.488000000
H    -0.864000000     5.423000000     4.168000000
H    -0.963000000     5.581000000     2.666000000
O     3.237000000    -1.487000000    -7.015000000
H     3.619000000    -1.865000000    -6.223000000
H     3.361000000    -2.160000000    -7.685000000
O     3.039000000     3.902000000    -0.586000000
H     2.424000000     4.238000000    -1.238000000
H     3.177000000     2.988000000    -0.834000000
O    -0.718000000     3.163000000    -5.947000000
H    -0.942000000     4.054000000    -6.216000000
H    -1.561000000     2.713000000    -5.885000000
O    -3.007000000     2.548000000     3.320000000
H    -2.101000000     2.484000000     3.016000000
H    -3.534000000     2.354000000     2.545000000
O     3.672000000     1.706000000    -1.850000000
H     3.839000000     0.765000000    -1.804000000
H     3.676000000     1.905000000    -2.786000000
O     4.401000000     4.434000000     1.936000000
H     3.761000000     4.479000000     1.226000000
H     5.249000000     4.528000000     1.502000000
O     0.715000000    -2.605000000     7.806000000
H     0.407000000    -2.909000000     6.952000000
H     0.191000000    -1.824000000     7.985000000
O     2.383000000    -2.419000000    -1.840000000
H     1.494000000    -2.114000000    -2.023000000
H     2.391000000    -2.580000000    -0.896000000
O    -0.811000000    -3.670000000    -4.842000000
H    -0.797000000    -3.892000000    -3.911000000
H    -1.717000000    -3.412000000    -5.013000000
O    -3.333000000     0.779000000    -1.313000000
H    -3.438000000    -0.150000000    -1.111000000
H    -3.841000000     0.909000000    -2.114000000
O     3.869000000    -0.207000000     0.896000000
H     4.419000000     0.575000000     0.914000000
H     2.973000000     0.130000000     0.909000000
O     5.272000000    -2.073000000    -2.257000000
H     4.392000000    -2.447000000    -2.207000000
H     5.365000000    -1.573000000    -1.446000000
O    -0.441000000     5.878000000    -2.264000000
H    -0.965000000     6.125000000    -3.026000000
H    -0.659000000     6.533000000    -1.601000000
O     3.177000000     2.473000000    -4.523000000
H     2.819000000     3.343000000    -4.346000000
H     2.408000000     1.907000000    -4.588000000
O    -2.853000000    -3.497000000     2.564000000
H    -3.633000000    -3.954000000     2.880000000
H    -2.954000000    -2.601000000     2.884000000
O     3.225000000     2.240000000     3.559000000
H     2.370000000     2.670000000     3.579000000
H     3.655000000     2.599000000     2.783000000
O    -4.806000000     3.372000000     4.994000000
H    -4.089000000     3.137000000     4.405000000
H    -4.377000000     3.792000000     5.739000000
O     5.441000000     4.262000000    -2.470000000
H     5.713000000     3.762000000    -1.700000000
H     4.490000000     4.154000000    -2.501000000
O     5.819000000     1.439000000    -4.575000000
H     4.896000000     1.687000000    -4.628000000
H     6.024000000     1.091000000    -5.443000000
O     3.807000000    -0.205000000     4.645000000
H     3.688000000     0.652000000     4.236000000
H     2.941000000    -0.430000000     4.986000000
O    -3.707000000    -0.349000000    -5.195000000
H    -3.139000000     0.352000000    -5.513000000
H    -4.217000000     0.056000000    -4.493000000
O    -4.057000000    -1.690000000    -0.489000000
H    -4.900000000    -2.136000000    -0.572000000
H    -3.579000000    -2.201000000     0.164000000
O    -1.600000000    -4.376000000    -2.297000000
H    -1.025000000    -4.522000000    -1.545000000
H    -2.456000000    -4.691000000    -2.007000000
O     4.894000000    -2.248000000    -5.006000000
H     5.565000000    -2.885000000    -5.251000000
H     5.121000000    -1.993000000    -4.111000000
