144
-2785.71514
O    -2.497000000    -1.413000000     4.595000000
H    -2.381000000    -0.791000000     3.877000000
H    -1.639000000    -1.455000000     5.017000000
O     2.899000000    -3.616000000    -4.900000000
H     2.761000000    -4.464000000    -5.321000000
H     2.038000000    -3.197000000    -4.918000000
O    -0.373000000     2.547000000    -1.743000000
H    -0.179000000     1.713000000    -1.314000000
H    -1.303000000     2.495000000    -1.960000000
O    -0.886000000    -5.017000000     0.206000000
H    -1.304000000    -5.124000000    -0.649000000
H    -1.243000000    -5.728000000     0.738000000
O     1.820000000    -4.405000000     1.150000000
H     2.258000000    -3.904000000     0.462000000
H     0.939000000    -4.560000000     0.809000000
O    -1.349000000     4.691000000     6.702000000
H    -1.081000000     3.924000000     6.196000000
H    -0.703000000     4.751000000     7.405000000
O    -4.169000000    -1.695000000    -1.443000000
H    -4.210000000    -1.673000000    -2.399000000
H    -4.172000000    -0.774000000    -1.182000000
O     1.106000000     3.774000000     3.892000000
H     1.073000000     3.424000000     4.782000000
H     0.507000000     3.218000000     3.394000000
O     7.440000000     1.618000000     0.904000000
H     7.917000000     2.342000000     0.498000000
H     6.583000000     1.628000000     0.479000000
O     0.085000000    -0.461000000     5.249000000
H     0.351000000    -0.579000000     4.337000000
H     0.783000000    -0.873000000     5.758000000
O    -4.726000000    -2.966000000     4.742000000
H    -5.436000000    -2.324000000     4.722000000
H    -3.931000000    -2.448000000     4.611000000
O    -4.040000000     3.299000000     6.990000000
H    -4.166000000     2.591000000     6.358000000
H    -3.286000000     3.787000000     6.656000000
O    -3.808000000     1.296000000     5.247000000
H    -4.626000000     0.935000000     4.905000000
H    -3.148000000     1.049000000     4.600000000
O     7.621000000    -1.003000000    -3.121000000
H     7.418000000    -0.302000000    -3.741000000
H     6.769000000    -1.378000000    -2.897000000
O    -4.013000000    -1.876000000    -4.056000000
H    -3.429000000    -1.314000000    -4.567000000
H    -4.892000000    -1.640000000    -4.353000000
O     4.885000000    -1.410000000    -2.133000000
H     4.429000000    -0.617000000    -2.416000000
H     4.376000000    -1.724000000    -1.386000000
O     1.571000000     1.273000000    -4.881000000
H     1.051000000     0.817000000    -4.218000000
H     0.934000000     1.534000000    -5.546000000
O    -2.627000000     0.163000000    -5.229000000
H    -2.309000000     0.754000000    -4.547000000
H    -2.051000000     0.326000000    -5.975000000
O     0.139000000     2.464000000     8.335000000
H     0.947000000     2.935000000     8.129000000
H    -0.367000000     2.489000000     7.523000000
O     3.824000000    -2.468000000     0.169000000
H     4.371000000    -3.234000000     0.344000000
H     4.166000000    -1.790000000     0.751000000
O    -3.118000000     0.052000000     7.856000000
H    -3.705000000    -0.684000000     8.024000000
H    -3.123000000     0.150000000     6.904000000
O    -2.830000000     6.259000000     3.289000000
H    -2.444000000     6.523000000     2.454000000
H    -2.822000000     5.302000000     3.265000000
O     3.830000000    -2.003000000    -7.351000000
H     3.374000000    -1.233000000    -7.690000000
H     3.491000000    -2.110000000    -6.461000000
O    -4.864000000     4.935000000     1.616000000
H    -4.486000000     4.311000000     0.996000000
H    -4.364000000     5.740000000     1.481000000
O    -3.094000000     2.583000000    -2.586000000
H    -3.822000000     2.928000000    -3.104000000
H    -3.513000000     2.053000000    -1.908000000
O    -2.267000000    -4.054000000    -3.044000000
H    -2.647000000    -3.202000000    -2.829000000
H    -3.007000000    -4.572000000    -3.361000000
O    -2.878000000     3.696000000     3.686000000
H    -2.248000000     3.106000000     3.271000000
H    -3.698000000     3.202000000     3.696000000
O     4.339000000     1.153000000    -3.174000000
H     4.845000000     1.963000000    -3.104000000
H     3.798000000     1.275000000    -3.954000000
O     0.565000000     6.573000000     0.050000000
H     0.372000000     7.325000000     0.610000000
H     0.244000000     5.818000000     0.543000000
O     1.153000000    -1.138000000     2.768000000
H     1.801000000    -1.831000000     2.641000000
H     0.811000000    -0.967000000     1.890000000
O     4.144000000     4.310000000    -0.128000000
H     3.743000000     4.156000000     0.728000000
H     3.407000000     4.515000000    -0.703000000
O     3.688000000     0.085000000     3.750000000
H     3.923000000     0.598000000     2.977000000
H     2.983000000    -0.489000000     3.452000000
O     0.170000000    -3.138000000    -4.924000000
H    -0.350000000    -2.513000000    -5.428000000
H    -0.422000000    -3.443000000    -4.236000000
O    -4.965000000     1.090000000    -0.976000000
H    -4.868000000     1.542000000    -0.138000000
H    -5.911000000     1.024000000    -1.104000000
O     2.527000000     5.768000000     2.448000000
H     2.338000000     6.661000000     2.736000000
H     1.916000000     5.222000000     2.943000000
O     0.911000000    -7.035000000    -1.268000000
H     0.646000000    -6.281000000    -0.742000000
H     1.096000000    -6.670000000    -2.133000000
O    -0.197000000     4.248000000     1.074000000
H    -0.515000000     3.582000000     1.684000000
H    -0.224000000     3.820000000     0.218000000
O     5.223000000     1.519000000    -0.526000000
H     4.748000000     2.349000000    -0.476000000
H     4.997000000     1.165000000    -1.387000000
O     4.842000000    -0.298000000     1.366000000
H     4.710000000     0.283000000     0.617000000
H     5.787000000    -0.448000000     1.389000000
O     0.855000000    -5.756000000    -3.758000000
H     1.334000000    -6.205000000    -4.454000000
H     0.755000000    -4.859000000    -4.077000000
O     1.884000000     4.766000000    -1.582000000
H     1.284000000     5.490000000    -1.403000000
H     1.337000000     4.099000000    -1.999000000
O    -0.604000000     1.395000000    -6.698000000
H    -0.925000000     2.265000000    -6.459000000
H    -0.263000000     1.502000000    -7.586000000
O    -0.613000000     2.196000000     5.631000000
H    -0.964000000     2.212000000     4.741000000
H    -0.448000000     1.270000000     5.808000000
O    -6.145000000     0.385000000     4.320000000
H    -6.286000000     0.913000000     3.534000000
H    -7.008000000     0.023000000     4.523000000
O     3.469000000     2.692000000     2.429000000
H     2.804000000     3.378000000     2.489000000
H     3.254000000     2.087000000     3.138000000
O    -4.450000000     2.141000000     1.554000000
H    -4.014000000     1.554000000     2.171000000
H    -5.384000000     2.017000000     1.724000000
O    -4.606000000    -4.398000000    -0.142000000
H    -4.557000000    -3.489000000    -0.437000000
H    -4.424000000    -4.356000000     0.796000000
O     3.848000000     0.875000000    -6.154000000
H     3.581000000     1.022000000    -7.062000000
H     3.043000000     0.983000000    -5.647000000
