144
-2759.66177
O    -5.429000000    -0.257000000    -5.850000000
H    -5.312000000    -0.095000000    -6.786000000
H    -4.947000000    -1.068000000    -5.685000000
O    -3.117000000     1.659000000    -4.595000000
H    -3.670000000     1.106000000    -5.147000000
H    -3.550000000     2.513000000    -4.603000000
O    -1.453000000     3.164000000    -2.510000000
H    -1.967000000     3.970000000    -2.451000000
H    -1.784000000     2.727000000    -3.295000000
O     3.347000000     3.246000000     4.061000000
H     3.705000000     2.403000000     4.340000000
H     2.659000000     3.019000000     3.436000000
O     1.865000000    -5.243000000     4.414000000
H     0.939000000    -5.112000000     4.618000000
H     2.146000000    -4.413000000     4.030000000
O     0.430000000    -0.146000000    -5.703000000
H     0.084000000     0.558000000    -6.251000000
H     0.570000000     0.263000000    -4.849000000
O     2.777000000    -0.764000000     4.479000000
H     2.583000000    -0.105000000     3.813000000
H     3.231000000    -0.281000000     5.169000000
O    -1.173000000     4.775000000     5.354000000
H    -0.266000000     4.900000000     5.634000000
H    -1.116000000     4.156000000     4.626000000
O    -6.499000000     2.113000000    -2.297000000
H    -5.963000000     1.322000000    -2.367000000
H    -6.659000000     2.375000000    -3.204000000
O    -4.671000000    -0.087000000    -0.024000000
H    -4.781000000    -0.192000000    -0.969000000
H    -4.573000000     0.857000000     0.102000000
O     4.763000000     0.320000000    -1.078000000
H     4.412000000     1.210000000    -1.104000000
H     5.681000000     0.417000000    -1.331000000
O     5.485000000     2.183000000     2.267000000
H     5.534000000     2.626000000     1.420000000
H     4.548000000     2.138000000     2.460000000
O     0.815000000     2.573000000     6.339000000
H     1.162000000     3.460000000     6.241000000
H     0.217000000     2.466000000     5.600000000
O     4.676000000     5.169000000     2.255000000
H     4.971000000     4.623000000     1.527000000
H     4.055000000     4.619000000     2.731000000
O     7.616000000     0.618000000     2.071000000
H     8.299000000     1.013000000     2.612000000
H     6.818000000     1.091000000     2.308000000
O    -3.619000000     2.628000000     2.965000000
H    -4.201000000     2.161000000     3.563000000
H    -3.666000000     3.541000000     3.248000000
O     1.686000000    -2.423000000    -6.462000000
H     2.358000000    -2.121000000    -5.850000000
H     0.961000000    -1.810000000    -6.344000000
O    -1.761000000    -7.282000000    -0.360000000
H    -1.492000000    -6.437000000     0.000000000
H    -1.420000000    -7.280000000    -1.254000000
O     2.556000000     4.172000000     0.236000000
H     1.907000000     4.761000000    -0.149000000
H     2.050000000     3.611000000     0.824000000
O    -1.520000000    -2.155000000    -5.695000000
H    -1.083000000    -1.310000000    -5.590000000
H    -2.054000000    -2.052000000    -6.483000000
O    -4.359000000    -3.308000000    -0.169000000
H    -4.899000000    -2.716000000     0.355000000
H    -4.975000000    -3.727000000    -0.770000000
O     1.436000000     5.038000000     3.297000000
H     1.047000000     5.780000000     2.833000000
H     1.615000000     4.394000000     2.612000000
O     6.532000000    -2.046000000     3.402000000
H     7.308000000    -1.863000000     2.871000000
H     5.830000000    -1.555000000     2.976000000
O     3.449000000    -2.131000000    -1.285000000
H     3.771000000    -1.246000000    -1.459000000
H     2.497000000    -2.039000000    -1.262000000
O    -4.867000000    -0.230000000    -2.825000000
H    -4.609000000    -0.095000000    -3.737000000
H    -5.487000000    -0.959000000    -2.857000000
O    -1.653000000    -4.028000000    -3.824000000
H    -1.611000000    -3.448000000    -4.584000000
H    -2.344000000    -3.656000000    -3.276000000
O    -6.629000000     2.794000000     0.392000000
H    -7.083000000     2.937000000    -0.439000000
H    -5.723000000     2.611000000     0.142000000
O     3.133000000    -5.937000000     0.479000000
H     3.035000000    -5.624000000    -0.420000000
H     3.690000000    -5.283000000     0.901000000
O     4.945000000    -3.736000000     0.623000000
H     5.858000000    -3.985000000     0.770000000
H     4.994000000    -2.983000000     0.034000000
O     5.267000000     3.905000000     0.042000000
H     5.521000000     3.734000000    -0.865000000
H     4.349000000     4.171000000    -0.013000000
O     0.788000000     0.536000000    -2.977000000
H     0.760000000     0.135000000    -2.108000000
H     0.050000000     1.145000000    -2.984000000
O    -7.486000000    -0.941000000    -0.651000000
H    -8.039000000    -0.189000000    -0.443000000
H    -6.744000000    -0.867000000    -0.051000000
O    -2.357000000     4.839000000     0.309000000
H    -2.364000000     5.635000000    -0.223000000
H    -3.071000000     4.962000000     0.934000000
O    -1.493000000    -0.016000000     4.462000000
H    -1.126000000     0.868000000     4.440000000
H    -1.949000000    -0.107000000     3.625000000
O     3.357000000     1.523000000     6.091000000
H     2.463000000     1.860000000     6.032000000
H     3.861000000     2.245000000     6.464000000
O     4.427000000     7.153000000     0.488000000
H     4.239000000     6.309000000     0.898000000
H     4.322000000     6.992000000    -0.450000000
O     3.490000000    -5.056000000    -1.908000000
H     3.764000000    -4.144000000    -1.811000000
H     3.730000000    -5.283000000    -2.806000000
O    -1.133000000    -6.934000000    -3.067000000
H    -1.403000000    -6.076000000    -3.394000000
H    -1.363000000    -7.542000000    -3.770000000
O    -2.859000000    -0.190000000     2.199000000
H    -2.628000000    -0.013000000     1.288000000
H    -3.816000000    -0.157000000     2.214000000
O    -2.298000000    -3.436000000     1.902000000
H    -1.940000000    -2.563000000     2.066000000
H    -2.810000000    -3.337000000     1.099000000
O     3.387000000    -2.397000000     6.693000000
H     2.968000000    -1.996000000     5.932000000
H     2.668000000    -2.801000000     7.178000000
O    -0.859000000     2.530000000     3.840000000
H    -0.067000000     2.496000000     3.304000000
H    -1.578000000     2.498000000     3.208000000
O    -2.435000000    -5.222000000    -6.443000000
H    -2.110000000    -5.185000000    -7.342000000
H    -1.900000000    -4.585000000    -5.969000000
O     1.567000000     5.326000000     5.943000000
H     2.504000000     5.378000000     6.132000000
H     1.521000000     5.182000000     4.998000000
O     4.581000000    -0.833000000     1.746000000
H     4.816000000    -0.517000000     0.874000000
H     3.883000000    -0.245000000     2.034000000
O    -4.015000000     2.499000000     0.231000000
H    -3.257000000     3.050000000     0.042000000
H    -3.897000000     2.233000000     1.143000000
O     3.461000000    -3.246000000     3.418000000
H     3.634000000    -3.202000000     2.477000000
H     3.371000000    -2.332000000     3.687000000
O     0.437000000     4.926000000    -1.844000000
H     0.606000000     4.999000000    -2.784000000
H    -0.243000000     4.256000000    -1.774000000
