144
-2808.00982
O    -4.026000000    -0.560000000    -5.473000000
H    -4.520000000    -0.754000000    -6.269000000
H    -3.109000000    -0.615000000    -5.740000000
O    -2.985000000     2.876000000    -2.401000000
H    -3.114000000     3.397000000    -3.194000000
H    -3.450000000     2.058000000    -2.573000000
O     4.571000000     3.606000000     2.760000000
H     4.844000000     2.908000000     3.356000000
H     3.701000000     3.341000000     2.463000000
O     4.058000000    -3.092000000     5.264000000
H     3.577000000    -3.916000000     5.186000000
H     4.097000000    -2.752000000     4.370000000
O    -0.322000000     2.166000000    -4.650000000
H    -0.063000000     2.969000000    -5.103000000
H     0.497000000     1.812000000    -4.303000000
O    -1.429000000    -1.902000000     6.050000000
H    -1.522000000    -1.274000000     5.333000000
H    -1.890000000    -1.496000000     6.784000000
O     1.513000000     1.447000000     5.659000000
H     1.506000000     1.150000000     4.749000000
H     0.596000000     1.637000000     5.857000000
O    -0.062000000     5.067000000     4.619000000
H    -0.465000000     4.303000000     4.206000000
H     0.594000000     4.701000000     5.212000000
O     2.342000000    -5.626000000     4.928000000
H     2.099000000    -6.432000000     4.472000000
H     1.534000000    -5.113000000     4.954000000
O    -4.229000000    -1.155000000     1.534000000
H    -3.519000000    -0.520000000     1.625000000
H    -4.955000000    -0.775000000     2.027000000
O    -0.415000000     7.049000000     1.091000000
H     0.056000000     7.872000000     1.222000000
H     0.225000000     6.371000000     1.307000000
O     3.264000000     2.215000000    -0.752000000
H     2.882000000     2.271000000     0.124000000
H     4.142000000     2.585000000    -0.654000000
O     7.175000000     3.717000000     1.294000000
H     7.838000000     4.390000000     1.447000000
H     6.348000000     4.137000000     1.533000000
O     2.402000000    -0.374000000    -4.355000000
H     1.887000000    -0.070000000    -3.608000000
H     2.951000000     0.374000000    -4.588000000
O    -1.055000000    -6.903000000    -0.277000000
H    -0.321000000    -6.512000000     0.196000000
H    -1.335000000    -6.222000000    -0.889000000
O     2.742000000     6.654000000     0.998000000
H     3.364000000     6.233000000     0.404000000
H     2.185000000     5.939000000     1.307000000
O    -1.142000000    -0.783000000    -5.636000000
H    -1.147000000     0.017000000    -5.111000000
H    -1.182000000    -0.475000000    -6.542000000
O     0.430000000    -5.465000000     1.920000000
H     0.018000000    -4.935000000     2.603000000
H     0.659000000    -4.838000000     1.235000000
O     1.010000000    -6.154000000    -2.740000000
H     1.356000000    -5.306000000    -3.018000000
H     0.099000000    -5.977000000    -2.507000000
O    -3.141000000    -3.687000000     0.469000000
H    -3.572000000    -2.832000000     0.479000000
H    -3.648000000    -4.203000000    -0.157000000
O     0.113000000    -4.323000000     4.875000000
H     0.072000000    -3.684000000     5.586000000
H    -0.622000000    -4.094000000     4.306000000
O     0.861000000     4.811000000     1.958000000
H     0.509000000     4.812000000     2.848000000
H     1.314000000     3.972000000     1.880000000
O     6.896000000     0.152000000     2.861000000
H     7.222000000     0.692000000     2.142000000
H     6.000000000     0.456000000     3.002000000
O     4.375000000    -0.172000000    -1.863000000
H     4.261000000    -0.295000000    -2.805000000
H     3.811000000     0.571000000    -1.648000000
O    -4.911000000     0.955000000    -2.939000000
H    -4.700000000     0.717000000    -3.842000000
H    -5.205000000     0.137000000    -2.538000000
O     0.607000000    -3.061000000    -5.195000000
H     0.298000000    -2.157000000    -5.266000000
H     1.010000000    -3.243000000    -6.044000000
O     0.900000000    -4.264000000    -0.529000000
H     1.504000000    -4.074000000    -1.246000000
H     0.222000000    -3.593000000    -0.602000000
O     5.217000000     5.867000000    -0.703000000
H     4.632000000     5.883000000    -1.460000000
H     5.282000000     4.941000000    -0.469000000
O     2.161000000     2.177000000    -3.475000000
H     2.321000000     2.287000000    -2.538000000
H     2.149000000     3.068000000    -3.823000000
O    -6.267000000    -1.260000000    -1.279000000
H    -5.841000000    -0.948000000    -0.481000000
H    -5.731000000    -2.002000000    -1.561000000
O    -5.153000000    -3.558000000    -1.739000000
H    -4.751000000    -3.332000000    -2.578000000
H    -5.106000000    -4.514000000    -1.702000000
O    -1.942000000     3.555000000     0.511000000
H    -2.221000000     3.263000000    -0.357000000
H    -2.543000000     4.267000000     0.729000000
O    -1.573000000     0.202000000     4.347000000
H    -1.438000000     1.021000000     4.824000000
H    -1.764000000     0.476000000     3.450000000
O     4.741000000     1.406000000     4.141000000
H     3.900000000     1.515000000     3.699000000
H     4.583000000     0.723000000     4.792000000
O     2.479000000     5.392000000    -1.771000000
H     2.960000000     5.078000000    -2.537000000
H     1.635000000     4.942000000    -1.817000000
O     2.238000000    -3.710000000    -2.938000000
H     1.612000000    -3.453000000    -3.614000000
H     3.082000000    -3.731000000    -3.388000000
O    -1.693000000    -5.204000000    -2.290000000
H    -2.627000000    -5.405000000    -2.229000000
H    -1.559000000    -4.965000000    -3.207000000
O    -2.302000000     0.745000000     1.727000000
H    -1.714000000     0.135000000     1.281000000
H    -1.962000000     1.612000000     1.503000000
O    -1.673000000    -3.596000000     2.847000000
H    -2.198000000    -2.938000000     3.303000000
H    -2.194000000    -3.827000000     2.078000000
O    -3.842000000    -2.844000000    -3.969000000
H    -3.143000000    -3.281000000    -4.456000000
H    -3.857000000    -1.954000000    -4.321000000
O     3.591000000    -0.081000000     6.066000000
H     2.893000000     0.481000000     5.730000000
H     3.398000000    -0.946000000     5.703000000
O    -1.413000000     3.209000000     3.215000000
H    -1.438000000     3.304000000     2.262000000
H    -2.328000000     3.085000000     3.467000000
O    -1.834000000    -4.487000000    -4.968000000
H    -1.761000000    -4.768000000    -5.880000000
H    -1.142000000    -3.834000000    -4.862000000
O     1.688000000     4.157000000     6.262000000
H     1.801000000     3.223000000     6.088000000
H     2.533000000     4.440000000     6.611000000
O     4.988000000    -1.352000000     1.328000000
H     5.831000000    -0.965000000     1.096000000
H     4.825000000    -2.001000000     0.642000000
O    -4.627000000     2.122000000     0.411000000
H    -4.157000000     1.810000000    -0.363000000
H    -4.086000000     1.839000000     1.148000000
O     3.115000000    -1.680000000     3.351000000
H     3.631000000    -1.824000000     2.558000000
H     2.790000000    -0.784000000     3.266000000
O    -0.110000000     4.779000000    -2.208000000
H    -0.609000000     4.944000000    -1.408000000
H    -0.584000000     4.070000000    -2.643000000
