144
-2810.04027
O    -4.185000000    -2.502000000     2.379000000
H    -4.067000000    -3.006000000     1.574000000
H    -3.487000000    -2.809000000     2.958000000
O    -1.080000000    -0.340000000     4.664000000
H    -1.173000000    -0.046000000     5.570000000
H    -0.573000000     0.352000000     4.239000000
O     0.771000000     6.057000000     1.930000000
H     1.312000000     5.375000000     2.327000000
H     0.129000000     5.578000000     1.405000000
O    -3.972000000     0.623000000     6.796000000
H    -3.384000000     1.168000000     7.319000000
H    -3.607000000     0.658000000     5.912000000
O     0.544000000     1.971000000     6.242000000
H     1.228000000     1.395000000     6.585000000
H     0.619000000     1.891000000     5.291000000
O    -2.979000000     3.428000000     1.731000000
H    -2.138000000     3.713000000     1.375000000
H    -3.337000000     4.209000000     2.154000000
O     4.833000000     0.752000000     6.055000000
H     4.231000000     0.317000000     5.451000000
H     5.424000000     0.057000000     6.345000000
O     1.465000000     4.474000000     5.780000000
H     2.045000000     4.756000000     6.487000000
H     1.428000000     3.522000000     5.865000000
O     4.535000000     2.128000000     1.981000000
H     3.633000000     2.086000000     2.296000000
H     5.064000000     1.857000000     2.731000000
O     5.831000000    -3.196000000    -3.580000000
H     6.329000000    -3.033000000    -4.381000000
H     5.471000000    -2.340000000    -3.344000000
O    -5.056000000     0.934000000     3.367000000
H    -5.133000000     0.684000000     2.446000000
H    -4.604000000     0.196000000     3.778000000
O     2.875000000     1.957000000    -1.915000000
H     3.743000000     2.098000000    -1.536000000
H     2.388000000     2.752000000    -1.698000000
O    -1.734000000     2.802000000     7.078000000
H    -1.837000000     2.986000000     6.144000000
H    -0.788000000     2.729000000     7.204000000
O     5.626000000     1.545000000    -0.575000000
H     5.173000000     1.774000000     0.237000000
H     6.540000000     1.779000000    -0.413000000
O    -6.094000000     3.297000000     3.628000000
H    -5.669000000     2.454000000     3.470000000
H    -7.013000000     3.147000000     3.404000000
O    -0.507000000    -3.484000000    -8.084000000
H    -0.878000000    -3.461000000    -7.202000000
H    -0.995000000    -2.816000000    -8.566000000
O     1.928000000     4.802000000    -1.105000000
H     1.309000000     4.899000000    -0.381000000
H     2.783000000     4.987000000    -0.714000000
O     1.916000000    -3.331000000    -0.388000000
H     1.727000000    -2.660000000    -1.044000000
H     1.363000000    -3.099000000     0.358000000
O     0.040000000    -5.380000000    -0.524000000
H     0.826000000    -4.991000000    -0.139000000
H     0.320000000    -5.677000000    -1.390000000
O    -3.412000000    -3.858000000     0.300000000
H    -2.517000000    -3.563000000     0.467000000
H    -3.309000000    -4.727000000    -0.088000000
O    -0.737000000     4.687000000     0.200000000
H    -1.433000000     5.309000000    -0.015000000
H    -0.857000000     3.970000000    -0.423000000
O    -1.913000000     2.919000000    -1.696000000
H    -2.185000000     2.028000000    -1.477000000
H    -2.685000000     3.311000000    -2.104000000
O     2.567000000    -0.844000000    -4.427000000
H     3.038000000    -0.493000000    -3.671000000
H     2.393000000    -1.756000000    -4.198000000
O     6.830000000    -3.046000000    -0.983000000
H     7.652000000    -2.990000000    -1.469000000
H     6.183000000    -2.639000000    -1.560000000
O     3.723000000    -4.882000000    -2.138000000
H     4.155000000    -4.664000000    -2.964000000
H     3.035000000    -4.223000000    -2.046000000
O     5.269000000     1.450000000    -4.539000000
H     4.684000000     1.308000000    -5.283000000
H     4.827000000     2.114000000    -4.010000000
O     0.010000000    -5.352000000    -5.549000000
H     0.457000000    -5.307000000    -4.704000000
H    -0.762000000    -4.796000000    -5.442000000
O     4.838000000    -0.576000000    -2.502000000
H     5.089000000    -0.026000000    -1.760000000
H     5.408000000    -0.289000000    -3.216000000
O     1.547000000     2.028000000    -4.636000000
H     1.564000000     1.110000000    -4.908000000
H     1.716000000     2.002000000    -3.694000000
O     3.170000000    -0.134000000     4.196000000
H     2.846000000     0.699000000     3.852000000
H     3.370000000    -0.653000000     3.417000000
O    -3.938000000    -3.420000000    -2.713000000
H    -4.372000000    -2.605000000    -2.965000000
H    -4.403000000    -3.705000000    -1.926000000
O     2.241000000    -3.430000000    -4.370000000
H     1.468000000    -3.088000000    -4.820000000
H     2.473000000    -4.219000000    -4.860000000
O    -2.408000000     2.514000000     4.253000000
H    -3.014000000     2.536000000     3.512000000
H    -1.618000000     2.102000000     3.903000000
O     2.551000000     4.265000000     3.134000000
H     2.260000000     3.354000000     3.164000000
H     2.511000000     4.559000000     4.044000000
O     3.520000000     0.404000000    -6.971000000
H     2.715000000     0.307000000    -7.480000000
H     3.372000000    -0.122000000    -6.186000000
O    -2.292000000    -2.042000000    -6.497000000
H    -1.753000000    -1.353000000    -6.884000000
H    -3.190000000    -1.722000000    -6.583000000
O     1.037000000    -0.185000000    -7.640000000
H     0.112000000    -0.203000000    -7.395000000
H     1.040000000    -0.361000000    -8.580000000
O    -2.453000000    -4.136000000    -4.787000000
H    -2.753000000    -3.977000000    -3.892000000
H    -2.687000000    -3.339000000    -5.263000000
O    -5.205000000    -0.257000000     0.803000000
H    -5.006000000    -1.068000000     1.272000000
H    -6.140000000    -0.318000000     0.606000000
O    -4.768000000    -0.858000000    -3.748000000
H    -4.298000000    -0.442000000    -4.470000000
H    -5.693000000    -0.766000000    -3.978000000
O     3.406000000    -2.954000000     3.056000000
H     4.050000000    -3.420000000     2.523000000
H     2.633000000    -2.889000000     2.494000000
O    -4.924000000     2.908000000    -0.046000000
H    -4.237000000     3.088000000     0.597000000
H    -4.613000000     2.135000000    -0.517000000
O     0.973000000    -6.125000000    -3.059000000
H     0.804000000    -7.028000000    -3.329000000
H     1.926000000    -6.069000000    -2.993000000
O    -1.361000000     5.111000000     3.867000000
H    -0.484000000     5.074000000     3.486000000
H    -1.573000000     4.201000000     4.071000000
O     5.000000000     5.140000000     3.628000000
H     5.706000000     4.848000000     3.051000000
H     4.197000000     4.917000000     3.156000000
O    -4.454000000     0.606000000    -1.546000000
H    -4.417000000    -0.197000000    -2.065000000
H    -4.521000000     0.303000000    -0.641000000
O     0.498000000    -2.424000000     1.867000000
H     0.411000000    -1.474000000     1.782000000
H    -0.232000000    -2.682000000     2.430000000
O    -1.703000000    -2.677000000     3.533000000
H    -1.595000000    -1.902000000     4.085000000
H    -1.194000000    -3.357000000     3.973000000
