144
-2812.20681
O    -5.344000000    -1.380000000     2.810000000
H    -4.554000000    -1.065000000     2.371000000
H    -5.635000000    -2.121000000     2.279000000
O    -2.416000000     0.016000000     7.162000000
H    -2.089000000     0.913000000     7.090000000
H    -2.137000000    -0.407000000     6.350000000
O     5.012000000    -0.169000000    -0.116000000
H     4.256000000     0.415000000    -0.057000000
H     5.717000000     0.305000000     0.325000000
O     4.088000000    -3.978000000    -4.433000000
H     4.162000000    -3.152000000    -3.956000000
H     4.220000000    -3.738000000    -5.350000000
O    -1.472000000     4.934000000     1.767000000
H    -2.231000000     4.942000000     2.350000000
H    -1.760000000     4.430000000     1.006000000
O     0.426000000     2.010000000    -6.071000000
H     0.949000000     1.297000000    -6.439000000
H    -0.347000000     2.054000000    -6.634000000
O    -1.258000000     2.578000000     5.948000000
H    -0.729000000     3.366000000     5.828000000
H    -1.242000000     2.146000000     5.094000000
O    -3.614000000     1.792000000     1.445000000
H    -3.795000000     1.209000000     0.707000000
H    -2.756000000     2.168000000     1.248000000
O     0.595000000    -0.524000000     6.840000000
H     1.277000000    -0.619000000     7.504000000
H     1.065000000    -0.254000000     6.051000000
O     4.590000000     1.039000000     6.033000000
H     3.801000000     0.766000000     5.566000000
H     4.728000000     0.355000000     6.689000000
O    -0.157000000     5.188000000     5.860000000
H     0.482000000     5.571000000     6.461000000
H     0.371000000     4.820000000     5.152000000
O     3.602000000     2.811000000     2.374000000
H     2.769000000     2.464000000     2.693000000
H     4.164000000     2.041000000     2.286000000
O    -5.503000000    -0.073000000     5.520000000
H    -5.971000000    -0.266000000     4.707000000
H    -4.606000000    -0.364000000     5.354000000
O     4.511000000     0.146000000     2.980000000
H     5.332000000     0.031000000     3.460000000
H     4.149000000    -0.737000000     2.912000000
O    -2.325000000     2.788000000    -4.621000000
H    -1.556000000     2.503000000    -4.127000000
H    -1.965000000     3.248000000    -5.379000000
O    -3.999000000     3.085000000     7.700000000
H    -3.325000000     2.793000000     7.086000000
H    -3.509000000     3.459000000     8.432000000
O     3.466000000     3.689000000    -0.667000000
H     3.466000000     3.317000000     0.215000000
H     2.942000000     4.486000000    -0.591000000
O     2.304000000     2.862000000    -2.877000000
H     2.340000000     3.720000000    -3.300000000
H     2.758000000     2.987000000    -2.044000000
O    -0.437000000     2.362000000    -2.619000000
H    -0.305000000     1.420000000    -2.509000000
H     0.424000000     2.697000000    -2.867000000
O    -1.535000000    -3.700000000    -5.887000000
H    -1.948000000    -3.734000000    -6.750000000
H    -1.274000000    -4.604000000    -5.711000000
O    -0.559000000    -6.021000000    -0.284000000
H    -0.195000000    -6.857000000     0.005000000
H    -0.231000000    -5.384000000     0.351000000
O    -0.883000000    -3.031000000     2.201000000
H    -1.160000000    -2.313000000     1.633000000
H    -1.700000000    -3.401000000     2.535000000
O    -1.962000000     2.911000000    -0.205000000
H    -2.640000000     3.306000000    -0.753000000
H    -1.290000000     2.624000000    -0.823000000
O    -4.424000000     0.196000000    -0.485000000
H    -5.205000000     0.049000000    -1.019000000
H    -3.721000000     0.333000000    -1.121000000
O     2.573000000     0.452000000    -4.140000000
H     2.219000000     1.185000000    -3.637000000
H     2.405000000     0.685000000    -5.053000000
O     2.552000000    -5.680000000    -1.262000000
H     1.656000000    -5.396000000    -1.079000000
H     3.083000000    -5.238000000    -0.599000000
O     5.208000000     1.938000000    -4.176000000
H     5.508000000     1.406000000    -3.439000000
H     4.263000000     2.015000000    -4.048000000
O    -3.699000000    -2.140000000    -4.485000000
H    -3.065000000    -2.553000000    -5.070000000
H    -3.531000000    -2.537000000    -3.630000000
O     5.492000000    -2.660000000    -1.424000000
H     5.363000000    -1.764000000    -1.113000000
H     5.150000000    -2.656000000    -2.317000000
O    -2.225000000     0.021000000    -6.441000000
H    -1.927000000     0.922000000    -6.573000000
H    -1.572000000    -0.363000000    -5.855000000
O     2.152000000     0.064000000     4.647000000
H     1.622000000     0.583000000     4.043000000
H     2.257000000    -0.781000000     4.209000000
O    -3.549000000    -3.234000000    -1.898000000
H    -4.296000000    -3.832000000    -1.925000000
H    -3.813000000    -2.547000000    -1.287000000
O     0.017000000    -1.509000000    -5.932000000
H    -0.247000000    -2.426000000    -5.857000000
H     0.866000000    -1.539000000    -6.374000000
O    -3.327000000     3.142000000     3.827000000
H    -3.954000000     2.612000000     3.335000000
H    -2.477000000     2.745000000     3.638000000
O     0.874000000     4.609000000     3.344000000
H     0.939000000     3.654000000     3.316000000
H     0.286000000     4.830000000     2.621000000
O    -1.383000000    -4.727000000    -2.692000000
H    -2.148000000    -4.189000000    -2.488000000
H    -1.137000000    -5.121000000    -1.854000000
O    -3.111000000     0.227000000    -2.903000000
H    -3.160000000    -0.487000000    -3.538000000
H    -2.872000000     0.994000000    -3.423000000
O     1.244000000     5.444000000     0.185000000
H     0.795000000     5.151000000     0.977000000
H     1.671000000     6.262000000     0.441000000
O    -0.057000000     5.961000000    -1.970000000
H     0.643000000     6.614000000    -1.977000000
H     0.207000000     5.333000000    -1.298000000
O     2.086000000    -2.281000000     2.921000000
H     2.578000000    -3.095000000     3.031000000
H     1.168000000    -2.551000000     2.953000000
O     1.663000000     7.177000000     4.160000000
H     1.635000000     7.155000000     5.117000000
H     1.569000000     6.262000000     3.897000000
O    -6.204000000     1.268000000     2.711000000
H    -5.388000000     1.436000000     2.240000000
H    -6.402000000     0.350000000     2.527000000
O     0.068000000    -5.685000000    -4.680000000
H    -0.616000000    -5.568000000    -4.020000000
H     0.847000000    -5.288000000    -4.291000000
O     4.559000000    -1.381000000    -3.594000000
H     3.927000000    -0.667000000    -3.676000000
H     5.385000000    -1.007000000    -3.899000000
O    -2.729000000     5.648000000     4.357000000
H    -1.856000000     5.568000000     4.740000000
H    -3.045000000     4.747000000     4.292000000
O     4.378000000     4.425000000     4.373000000
H     5.292000000     4.458000000     4.089000000
H     3.935000000     3.911000000     3.698000000
O     1.059000000    -4.722000000     1.388000000
H     1.968000000    -4.518000000     1.607000000
H     0.542000000    -4.202000000     2.005000000
O    -1.966000000    -0.796000000     4.428000000
H    -1.769000000     0.108000000     4.183000000
H    -1.178000000    -1.285000000     4.192000000
