144
-2824.01917
O    -0.014000000    -5.556000000     0.850000000
H     0.592000000    -5.010000000     0.349000000
H    -0.501000000    -6.044000000     0.186000000
O     1.449000000    -2.719000000    -2.793000000
H     2.304000000    -2.701000000    -3.224000000
H     0.817000000    -2.674000000    -3.510000000
O     3.303000000    -0.707000000     5.273000000
H     2.849000000    -0.012000000     4.796000000
H     4.114000000    -0.300000000     5.576000000
O     2.003000000     1.371000000     3.819000000
H     1.347000000     2.056000000     3.947000000
H     2.483000000     1.642000000     3.037000000
O    -5.852000000     0.093000000    -2.864000000
H    -6.065000000     0.358000000    -1.970000000
H    -5.922000000    -0.861000000    -2.855000000
O    -4.815000000     4.601000000    -1.099000000
H    -3.948000000     4.690000000    -1.494000000
H    -5.399000000     4.431000000    -1.839000000
O     1.570000000    -3.477000000     3.086000000
H     2.124000000    -2.743000000     2.821000000
H     1.866000000    -4.208000000     2.544000000
O     4.479000000     4.423000000     2.129000000
H     3.855000000     3.714000000     1.973000000
H     4.970000000     4.144000000     2.902000000
O    -5.609000000    -2.570000000    -3.705000000
H    -5.433000000    -3.329000000    -3.148000000
H    -4.741000000    -2.246000000    -3.949000000
O    -0.042000000     3.755000000     4.355000000
H     0.058000000     4.286000000     3.564000000
H    -0.837000000     4.091000000     4.769000000
O     4.618000000     4.026000000    -1.352000000
H     4.380000000     3.107000000    -1.227000000
H     5.573000000     4.037000000    -1.289000000
O     0.036000000     2.385000000    -3.898000000
H     0.463000000     1.688000000    -3.400000000
H    -0.885000000     2.127000000    -3.931000000
O    -0.452000000    -2.039000000    -4.582000000
H    -0.556000000    -2.519000000    -5.404000000
H    -1.346000000    -1.856000000    -4.296000000
O    -5.974000000    -4.933000000     2.175000000
H    -6.310000000    -5.719000000     1.745000000
H    -5.547000000    -4.440000000     1.474000000
O    -1.265000000     4.370000000     1.139000000
H    -0.338000000     4.146000000     1.056000000
H    -1.290000000     5.323000000     1.047000000
O     6.680000000     2.633000000     1.816000000
H     7.514000000     3.074000000     1.979000000
H     6.148000000     3.288000000     1.365000000
O     6.997000000     1.577000000    -0.827000000
H     6.972000000     1.548000000     0.130000000
H     7.069000000     2.508000000    -1.037000000
O    -1.993000000    -4.627000000     2.259000000
H    -1.520000000    -3.889000000     2.644000000
H    -1.383000000    -4.995000000     1.620000000
O    -0.157000000     5.259000000    -5.017000000
H     0.555000000     5.611000000    -4.482000000
H    -0.239000000     4.348000000    -4.736000000
O     3.853000000     6.926000000     1.439000000
H     4.220000000     6.101000000     1.757000000
H     3.298000000     6.673000000     0.701000000
O     0.672000000     8.127000000     0.544000000
H     1.318000000     7.570000000     0.109000000
H    -0.131000000     7.606000000     0.547000000
O    -0.612000000    -3.622000000     5.107000000
H     0.020000000    -3.575000000     4.390000000
H    -0.481000000    -2.809000000     5.596000000
O     4.260000000    -2.882000000     0.369000000
H     4.252000000    -2.555000000     1.268000000
H     5.139000000    -3.241000000     0.252000000
O     4.395000000    -1.761000000     2.925000000
H     4.639000000    -0.904000000     2.575000000
H     4.395000000    -1.640000000     3.875000000
O     1.151000000     0.228000000    -2.789000000
H     0.853000000     0.243000000    -1.879000000
H     0.932000000    -0.651000000    -3.097000000
O    -5.095000000     1.871000000    -4.736000000
H    -5.223000000     1.081000000    -4.211000000
H    -5.954000000     2.292000000    -4.747000000
O    -1.921000000     0.270000000    -6.359000000
H    -1.123000000    -0.162000000    -6.053000000
H    -1.643000000     0.767000000    -7.128000000
O     1.495000000    -6.867000000    -1.720000000
H     1.606000000    -5.957000000    -1.442000000
H     2.375000000    -7.241000000    -1.674000000
O     1.866000000    -4.159000000    -0.478000000
H     2.704000000    -3.782000000    -0.213000000
H     1.635000000    -3.692000000    -1.281000000
O     5.106000000     0.490000000     1.664000000
H     5.872000000     1.039000000     1.827000000
H     4.404000000     1.109000000     1.464000000
O    -2.493000000     2.176000000    -3.117000000
H    -3.388000000     2.326000000    -3.421000000
H    -2.355000000     2.841000000    -2.442000000
O     0.142000000     6.368000000    -2.102000000
H     0.877000000     5.916000000    -1.686000000
H     0.430000000     7.278000000    -2.173000000
O    -3.693000000    -1.278000000     1.742000000
H    -4.092000000    -1.107000000     2.596000000
H    -2.758000000    -1.363000000     1.927000000
O     2.707000000     5.308000000     5.026000000
H     2.499000000     4.722000000     4.298000000
H     2.258000000     4.924000000     5.779000000
O     2.356000000     5.610000000    -0.759000000
H     1.932000000     4.860000000    -0.341000000
H     3.150000000     5.248000000    -1.152000000
O     2.838000000     1.284000000    -4.523000000
H     2.344000000     0.845000000    -3.830000000
H     3.046000000     2.145000000    -4.159000000
O    -4.490000000    -4.373000000    -2.024000000
H    -4.589000000    -4.053000000    -1.127000000
H    -3.592000000    -4.701000000    -2.063000000
O     1.636000000     5.602000000     2.372000000
H     1.764000000     4.795000000     1.874000000
H     2.467000000     6.070000000     2.288000000
O    -0.644000000     6.604000000     3.741000000
H     0.271000000     6.552000000     3.462000000
H    -0.763000000     7.516000000     4.004000000
O    -4.332000000    -3.675000000     0.495000000
H    -4.107000000    -2.755000000     0.632000000
H    -3.596000000    -4.160000000     0.869000000
O    -1.714000000    -6.077000000    -2.131000000
H    -1.344000000    -6.338000000    -2.975000000
H    -2.419000000    -6.704000000    -1.974000000
O    -3.939000000     3.783000000     1.776000000
H    -3.005000000     3.590000000     1.697000000
H    -4.203000000     4.055000000     0.898000000
O     0.168000000    -1.040000000     5.810000000
H     0.222000000    -0.231000000     6.319000000
H     0.986000000    -1.066000000     5.313000000
O    -1.237000000    -0.788000000     3.170000000
H    -0.598000000    -1.129000000     3.797000000
H    -0.712000000    -0.523000000     2.415000000
O    -5.109000000     1.130000000     1.325000000
H    -4.350000000     1.701000000     1.440000000
H    -4.735000000     0.265000000     1.155000000
O    -2.004000000     4.561000000    -1.855000000
H    -2.059000000     4.542000000    -0.899000000
H    -1.262000000     5.136000000    -2.040000000
O    -2.967000000    -0.854000000    -3.671000000
H    -2.480000000    -0.260000000    -4.241000000
H    -2.764000000    -0.555000000    -2.784000000
O     4.584000000     3.020000000     4.591000000
H     5.350000000     2.716000000     5.078000000
H     3.842000000     2.825000000     5.163000000
