144
-2810.26955
O     6.332000000    -3.096000000     3.144000000
H     6.104000000    -2.170000000     3.219000000
H     5.753000000    -3.537000000     3.766000000
O    -1.420000000    -1.144000000     4.943000000
H    -1.981000000    -0.403000000     5.174000000
H    -0.666000000    -1.064000000     5.527000000
O     4.333000000     2.452000000     0.257000000
H     4.030000000     1.989000000    -0.524000000
H     5.145000000     2.007000000     0.499000000
O    -0.219000000     4.266000000     2.132000000
H    -0.507000000     4.289000000     1.220000000
H     0.668000000     3.907000000     2.094000000
O    -2.900000000     5.474000000     3.307000000
H    -3.419000000     5.566000000     2.508000000
H    -2.042000000     5.179000000     3.003000000
O    -1.488000000    -0.474000000    -4.260000000
H    -2.372000000    -0.669000000    -3.949000000
H    -0.914000000    -0.769000000    -3.553000000
O    -2.787000000     2.599000000    -3.828000000
H    -3.032000000     2.276000000    -2.960000000
H    -2.985000000     3.535000000    -3.800000000
O     5.382000000    -0.488000000    -3.031000000
H     6.091000000     0.146000000    -3.143000000
H     4.596000000     0.049000000    -2.932000000
O     0.965000000     1.580000000     3.384000000
H     1.546000000     2.217000000     2.968000000
H     1.195000000     0.745000000     2.976000000
O     3.187000000     1.261000000    -2.351000000
H     2.513000000     0.581000000    -2.363000000
H     2.715000000     2.069000000    -2.557000000
O     4.989000000    -4.201000000     0.777000000
H     5.454000000    -3.996000000     1.588000000
H     5.167000000    -5.129000000     0.627000000
O    -7.575000000     3.510000000    -2.673000000
H    -6.629000000     3.654000000    -2.648000000
H    -7.740000000     2.882000000    -1.970000000
O     4.681000000     5.717000000     1.340000000
H     3.953000000     5.360000000     0.832000000
H     4.700000000     5.186000000     2.136000000
O     4.813000000     3.662000000    -2.472000000
H     3.867000000     3.758000000    -2.586000000
H     4.961000000     2.716000000    -2.490000000
O    -4.948000000     6.524000000    -1.917000000
H    -5.605000000     7.216000000    -1.999000000
H    -4.215000000     6.942000000    -1.466000000
O    -0.266000000     5.045000000    -5.120000000
H    -1.122000000     5.459000000    -5.007000000
H    -0.413000000     4.126000000    -4.896000000
O     2.444000000    -4.889000000     1.832000000
H     1.891000000    -4.135000000     1.628000000
H     3.267000000    -4.713000000     1.378000000
O     4.943000000    -2.979000000    -4.251000000
H     4.317000000    -3.290000000    -3.597000000
H     5.174000000    -2.096000000    -3.961000000
O    -5.490000000     3.352000000     1.543000000
H    -5.352000000     3.906000000     0.774000000
H    -4.923000000     2.595000000     1.398000000
O     4.501000000    -1.209000000     1.394000000
H     4.315000000    -1.894000000     0.751000000
H     5.173000000    -0.668000000     0.981000000
O     0.162000000    -4.313000000     4.382000000
H     0.268000000    -3.669000000     5.083000000
H     0.953000000    -4.850000000     4.429000000
O     2.591000000     3.130000000     2.149000000
H     3.238000000     2.982000000     1.459000000
H     3.073000000     2.987000000     2.964000000
O     1.073000000    -2.801000000    -5.029000000
H     0.259000000    -3.022000000    -4.575000000
H     1.374000000    -3.631000000    -5.398000000
O    -3.665000000     1.316000000     1.236000000
H    -3.151000000     1.408000000     0.434000000
H    -3.277000000     0.565000000     1.685000000
O     6.532000000     0.795000000     0.228000000
H     7.016000000     0.286000000    -0.423000000
H     7.021000000     0.670000000     1.041000000
O     0.311000000     2.155000000    -4.802000000
H     0.990000000     1.526000000    -5.044000000
H    -0.294000000     1.656000000    -4.253000000
O    -2.598000000     5.454000000     0.166000000
H    -2.030000000     4.780000000    -0.208000000
H    -2.038000000     6.227000000     0.236000000
O     0.908000000    -5.020000000    -2.422000000
H     0.170000000    -4.414000000    -2.350000000
H     0.504000000    -5.888000000    -2.433000000
O    -1.175000000    -3.786000000    -3.649000000
H    -1.884000000    -3.338000000    -3.187000000
H    -1.491000000    -3.871000000    -4.548000000
O    -1.587000000     8.225000000     0.001000000
H    -1.428000000     8.940000000     0.617000000
H    -2.422000000     8.446000000    -0.412000000
O     4.878000000    -0.676000000     3.898000000
H     4.318000000    -1.231000000     4.440000000
H     4.475000000    -0.704000000     3.030000000
O    -1.225000000     2.766000000     4.408000000
H    -0.407000000     2.375000000     4.102000000
H    -1.272000000     3.608000000     3.956000000
O    -3.251000000    -2.603000000    -2.735000000
H    -4.148000000    -2.630000000    -3.069000000
H    -3.340000000    -2.766000000    -1.797000000
O     2.436000000    -7.374000000     2.840000000
H     2.904000000    -7.765000000     2.103000000
H     2.425000000    -6.437000000     2.647000000
O    -5.607000000     1.423000000    -0.922000000
H    -4.949000000     1.213000000    -0.260000000
H    -5.570000000     2.376000000    -1.002000000
O     0.351000000     5.498000000    -2.190000000
H    -0.240000000     4.911000000    -1.717000000
H     0.096000000     5.406000000    -3.108000000
O    -4.196000000    -2.081000000    -5.745000000
H    -4.329000000    -1.318000000    -5.184000000
H    -4.662000000    -2.790000000    -5.301000000
O     2.069000000     3.544000000    -3.262000000
H     1.356000000     3.399000000    -3.884000000
H     1.801000000     4.319000000    -2.768000000
O    -4.411000000     0.403000000    -4.405000000
H    -5.054000000     1.050000000    -4.697000000
H    -3.564000000     0.792000000    -4.624000000
O    -5.058000000     3.940000000    -1.155000000
H    -4.113000000     3.807000000    -1.084000000
H    -5.154000000     4.871000000    -1.354000000
O    -5.877000000    -1.270000000    -1.425000000
H    -5.809000000    -0.317000000    -1.483000000
H    -5.747000000    -1.463000000    -0.496000000
O    -2.558000000    -0.953000000     2.436000000
H    -3.195000000    -1.376000000     3.011000000
H    -1.755000000    -0.913000000     2.956000000
O    -3.249000000     5.140000000    -3.854000000
H    -3.397000000     5.855000000    -4.473000000
H    -3.627000000     5.453000000    -3.032000000
O     3.955000000    -4.384000000    -2.177000000
H     3.966000000    -4.329000000    -1.222000000
H     3.049000000    -4.606000000    -2.394000000
O     0.942000000     8.248000000    -1.017000000
H     0.215000000     7.626000000    -0.981000000
H     0.528000000     9.106000000    -0.919000000
O    -1.919000000    -3.952000000     2.286000000
H    -1.820000000    -3.002000000     2.232000000
H    -1.142000000    -4.247000000     2.760000000
O    -3.538000000    -3.203000000    -0.144000000
H    -4.333000000    -3.137000000     0.384000000
H    -2.975000000    -3.803000000     0.346000000
O    -2.640000000    -7.051000000     1.381000000
H    -1.826000000    -6.549000000     1.423000000
H    -2.381000000    -7.948000000     1.592000000
