144
-2800.26747
O    -1.523000000    -4.245000000    -0.381000000
H    -1.467000000    -4.739000000     0.437000000
H    -2.461000000    -4.167000000    -0.550000000
O     4.068000000    -0.654000000     3.635000000
H     4.188000000    -0.223000000     2.789000000
H     3.146000000    -0.511000000     3.847000000
O     4.985000000    -5.986000000     1.629000000
H     5.258000000    -5.114000000     1.915000000
H     5.358000000    -6.580000000     2.281000000
O    -1.073000000    -3.204000000    -6.330000000
H    -0.182000000    -3.133000000    -5.986000000
H    -0.996000000    -2.944000000    -7.249000000
O    -2.433000000     5.947000000     2.374000000
H    -2.594000000     5.015000000     2.521000000
H    -3.271000000     6.368000000     2.567000000
O    -2.828000000     8.788000000     0.416000000
H    -2.583000000     7.875000000     0.266000000
H    -3.701000000     8.741000000     0.805000000
O    -0.604000000    -4.393000000    -2.900000000
H    -0.955000000    -4.142000000    -2.046000000
H    -0.861000000    -3.679000000    -3.483000000
O     3.318000000     1.088000000    -3.098000000
H     4.213000000     1.318000000    -3.350000000
H     2.842000000     1.918000000    -3.120000000
O     1.306000000     0.362000000     4.468000000
H     1.470000000     1.250000000     4.151000000
H     0.816000000     0.485000000     5.281000000
O     2.689000000     2.039000000    -0.473000000
H     3.022000000     2.059000000    -1.370000000
H     2.082000000     1.299000000    -0.460000000
O     1.451000000    -2.821000000    -5.133000000
H     1.976000000    -2.021000000    -5.161000000
H     2.094000000    -3.527000000    -5.062000000
O    -2.875000000     1.069000000     4.665000000
H    -2.374000000     1.862000000     4.852000000
H    -3.503000000     1.335000000     3.994000000
O     4.900000000    -4.830000000    -1.283000000
H     3.999000000    -4.670000000    -1.565000000
H     4.813000000    -5.378000000    -0.503000000
O    -6.429000000     2.205000000    -3.159000000
H    -5.714000000     2.588000000    -2.650000000
H    -6.424000000     2.695000000    -3.982000000
O     0.539000000     5.707000000    -0.353000000
H     0.175000000     4.834000000    -0.494000000
H     0.718000000     6.037000000    -1.233000000
O     1.315000000    -4.955000000     3.341000000
H     0.904000000    -4.099000000     3.459000000
H     1.808000000    -4.874000000     2.525000000
O     3.715000000    -1.832000000    -2.788000000
H     3.062000000    -2.429000000    -2.423000000
H     3.376000000    -0.958000000    -2.592000000
O     3.525000000     1.607000000     2.245000000
H     3.683000000     1.698000000     1.305000000
H     2.597000000     1.812000000     2.353000000
O     3.309000000    -4.640000000     5.386000000
H     3.904000000    -4.444000000     4.662000000
H     2.454000000    -4.750000000     4.970000000
O    -0.503000000    -7.025000000    -1.162000000
H    -0.715000000    -6.663000000    -2.023000000
H    -1.026000000    -6.507000000    -0.550000000
O    -1.691000000     3.342000000     5.608000000
H    -1.071000000     4.066000000     5.514000000
H    -1.406000000     2.884000000     6.399000000
O     0.966000000     0.398000000    -4.812000000
H     0.750000000     0.555000000    -5.732000000
H     1.872000000     0.089000000    -4.828000000
O    -3.479000000     3.154000000     2.493000000
H    -4.402000000     2.949000000     2.342000000
H    -3.095000000     3.192000000     1.617000000
O     3.346000000     4.484000000     0.861000000
H     2.979000000     3.657000000     0.549000000
H     2.616000000     5.102000000     0.819000000
O    -0.603000000     2.613000000    -4.376000000
H     0.096000000     1.966000000    -4.475000000
H    -0.522000000     2.916000000    -3.472000000
O     4.167000000    -3.464000000     3.030000000
H     4.487000000    -3.244000000     2.155000000
H     3.729000000    -2.668000000     3.332000000
O    -4.828000000     3.760000000    -1.577000000
H    -4.163000000     3.509000000    -0.936000000
H    -4.335000000     4.186000000    -2.278000000
O     2.010000000    -4.610000000    -2.388000000
H     1.143000000    -4.442000000    -2.757000000
H     1.839000000    -5.122000000    -1.598000000
O    -3.198000000    -1.541000000     1.253000000
H    -3.572000000    -2.037000000     0.526000000
H    -2.581000000    -0.938000000     0.840000000
O     2.431000000     3.490000000    -3.815000000
H     2.444000000     4.061000000    -3.047000000
H     3.272000000     3.647000000    -4.244000000
O     5.569000000    -2.165000000     1.115000000
H     6.116000000    -1.635000000     1.695000000
H     6.192000000    -2.606000000     0.537000000
O    -5.163000000     0.600000000     1.599000000
H    -5.582000000    -0.074000000     2.134000000
H    -4.313000000     0.226000000     1.367000000
O    -1.222000000    -5.919000000     1.627000000
H    -1.986000000    -6.489000000     1.541000000
H    -0.558000000    -6.469000000     2.043000000
O    -3.003000000     6.168000000    -0.307000000
H    -2.360000000     5.886000000    -0.958000000
H    -2.859000000     5.588000000     0.440000000
O     2.733000000    -6.606000000     0.189000000
H     1.952000000    -6.715000000     0.731000000
H     3.428000000    -6.389000000     0.811000000
O    -0.233000000     6.379000000    -3.769000000
H    -0.929000000     5.741000000    -3.616000000
H    -0.445000000     7.109000000    -3.186000000
O    -2.610000000     4.369000000    -3.578000000
H    -2.521000000     3.944000000    -2.725000000
H    -1.985000000     3.911000000    -4.141000000
O     1.495000000     2.992000000     3.589000000
H     0.591000000     3.259000000     3.422000000
H     1.804000000     3.600000000     4.261000000
O    -2.006000000    -0.871000000    -4.976000000
H    -2.044000000    -1.748000000    -5.357000000
H    -1.073000000    -0.661000000    -4.949000000
O    -5.008000000     5.572000000    -4.145000000
H    -4.118000000     5.223000000    -4.104000000
H    -4.891000000     6.514000000    -4.266000000
O     0.759000000     4.913000000    -6.437000000
H     1.505000000     4.804000000    -5.847000000
H    -0.008000000     4.764000000    -5.884000000
O    -1.960000000    -1.829000000     3.559000000
H    -2.481000000    -1.400000000     4.237000000
H    -2.414000000    -1.624000000     2.742000000
O    -0.384000000    -4.319000000     5.734000000
H    -1.113000000    -3.907000000     6.198000000
H    -0.136000000    -3.683000000     5.064000000
O     6.870000000    -2.729000000    -1.055000000
H     6.263000000    -1.991000000    -1.097000000
H     6.393000000    -3.456000000    -1.456000000
O     0.313000000     6.403000000     2.571000000
H     0.733000000     6.125000000     1.757000000
H    -0.560000000     6.012000000     2.537000000
O     0.658000000    -2.407000000     4.078000000
H     0.109000000    -1.886000000     3.493000000
H     1.209000000    -1.765000000     4.526000000
O    -3.270000000    -4.263000000     3.163000000
H    -2.812000000    -3.604000000     3.684000000
H    -2.662000000    -4.476000000     2.455000000
O    -2.782000000     1.659000000    -6.187000000
H    -2.364000000     1.666000000    -5.326000000
H    -3.161000000     0.784000000    -6.262000000
