144
-2814.80027
O     2.425000000     1.299000000     5.093000000
H     2.401000000     1.477000000     4.153000000
H     2.177000000     2.128000000     5.501000000
O    -6.724000000     3.219000000     2.431000000
H    -6.172000000     3.435000000     3.183000000
H    -6.197000000     2.609000000     1.915000000
O    -1.119000000     4.679000000     2.281000000
H    -0.806000000     4.721000000     1.378000000
H    -0.428000000     5.098000000     2.794000000
O     1.657000000     3.112000000    -0.088000000
H     0.702000000     3.146000000    -0.147000000
H     1.922000000     2.560000000    -0.824000000
O    -2.240000000     6.623000000    -2.133000000
H    -2.804000000     6.275000000    -2.823000000
H    -1.374000000     6.264000000    -2.329000000
O    -3.660000000    -3.176000000    -5.692000000
H    -3.295000000    -2.367000000    -5.334000000
H    -3.386000000    -3.176000000    -6.610000000
O    -0.219000000    -5.053000000    -4.621000000
H     0.297000000    -5.240000000    -3.837000000
H    -0.096000000    -4.115000000    -4.771000000
O    -4.677000000     0.701000000    -3.858000000
H    -3.787000000     0.924000000    -3.585000000
H    -4.769000000     1.100000000    -4.724000000
O    -3.351000000     5.081000000     0.526000000
H    -2.977000000     5.169000000     1.403000000
H    -2.956000000     5.794000000     0.024000000
O    -0.932000000     1.383000000     5.500000000
H    -0.573000000     2.207000000     5.828000000
H    -1.720000000     1.638000000     5.020000000
O    -2.724000000     3.971000000    -6.754000000
H    -3.290000000     4.490000000    -7.325000000
H    -2.865000000     3.067000000    -7.035000000
O    -2.617000000     2.592000000     3.686000000
H    -2.030000000     3.101000000     3.128000000
H    -3.451000000     3.061000000     3.649000000
O     0.505000000    -2.472000000    -5.790000000
H     1.414000000    -2.175000000    -5.834000000
H     0.466000000    -3.215000000    -6.392000000
O     5.591000000    -1.387000000     1.262000000
H     5.195000000    -2.213000000     0.983000000
H     5.403000000    -0.778000000     0.548000000
O     4.501000000    -4.290000000    -2.125000000
H     4.174000000    -5.171000000    -1.943000000
H     3.857000000    -3.916000000    -2.727000000
O    -2.278000000    -2.250000000     0.334000000
H    -2.911000000    -1.843000000    -0.258000000
H    -1.744000000    -1.522000000     0.651000000
O     0.154000000     0.529000000    -5.502000000
H    -0.349000000     1.322000000    -5.313000000
H     0.700000000     0.402000000    -4.726000000
O    -6.133000000     4.678000000    -0.377000000
H    -5.527000000     3.954000000    -0.533000000
H    -6.451000000     4.536000000     0.515000000
O     2.877000000    -1.142000000    -6.007000000
H     2.683000000    -0.856000000    -5.115000000
H     2.938000000    -0.330000000    -6.511000000
O    -2.078000000    -1.145000000    -4.706000000
H    -2.144000000    -0.307000000    -4.248000000
H    -1.180000000    -1.167000000    -5.037000000
O     2.882000000    -4.700000000     3.535000000
H     2.925000000    -5.132000000     2.682000000
H     1.946000000    -4.574000000     3.693000000
O    -4.829000000     1.959000000    -6.316000000
H    -4.448000000     1.241000000    -6.823000000
H    -5.688000000     2.103000000    -6.713000000
O    -3.068000000    -0.343000000     2.954000000
H    -3.133000000    -0.430000000     3.905000000
H    -2.895000000     0.587000000     2.810000000
O     2.970000000     3.099000000     2.521000000
H     2.760000000     3.106000000     1.587000000
H     3.497000000     2.309000000     2.642000000
O    -1.866000000    -4.813000000     0.234000000
H    -2.433000000    -5.156000000    -0.456000000
H    -2.106000000    -3.889000000     0.305000000
O     2.316000000     2.317000000    -2.655000000
H     1.976000000     3.053000000    -3.165000000
H     3.252000000     2.301000000    -2.853000000
O     5.213000000    -3.860000000     4.654000000
H     4.327000000    -4.010000000     4.326000000
H     5.527000000    -4.730000000     4.901000000
O    -3.908000000     4.331000000    -2.235000000
H    -3.779000000     4.672000000    -1.350000000
H    -3.362000000     3.546000000    -2.271000000
O     5.246000000    -4.119000000     0.590000000
H     5.106000000    -5.052000000     0.753000000
H     4.993000000    -3.996000000    -0.325000000
O     0.857000000    -5.396000000     0.498000000
H     0.000000000    -5.146000000     0.153000000
H     0.803000000    -5.205000000     1.435000000
O     6.796000000    -1.725000000     3.624000000
H     6.480000000    -1.687000000     2.721000000
H     6.233000000    -2.373000000     4.047000000
O     0.514000000    -0.771000000     5.502000000
H     1.425000000    -0.519000000     5.344000000
H     0.008000000     0.009000000     5.273000000
O     1.156000000    -5.520000000    -2.295000000
H     1.089000000    -6.462000000    -2.453000000
H     1.801000000    -5.440000000    -1.592000000
O     1.878000000    -0.282000000    -3.410000000
H     1.472000000    -0.519000000    -2.576000000
H     2.319000000     0.549000000    -3.234000000
O    -6.170000000     2.888000000    -3.223000000
H    -5.438000000     3.125000000    -2.654000000
H    -5.905000000     2.057000000    -3.620000000
O    -4.679000000    -0.940000000    -0.738000000
H    -5.090000000    -0.684000000     0.088000000
H    -4.523000000    -0.113000000    -1.193000000
O     1.395000000     3.820000000    -4.781000000
H     1.668000000     3.719000000    -5.693000000
H     0.523000000     3.426000000    -4.747000000
O    -5.864000000    -0.118000000     1.448000000
H    -5.174000000     0.546000000     1.451000000
H    -5.905000000    -0.425000000     2.354000000
O    -0.860000000     4.012000000    -0.544000000
H    -0.836000000     4.664000000    -1.244000000
H    -1.581000000     3.429000000    -0.783000000
O    -4.644000000     2.464000000     0.695000000
H    -4.107000000     2.073000000     0.006000000
H    -4.159000000     3.245000000     0.962000000
O     5.564000000     0.669000000    -0.911000000
H     5.602000000     1.625000000    -0.891000000
H     5.897000000     0.434000000    -1.777000000
O    -1.115000000     2.964000000    -4.632000000
H    -1.540000000     2.223000000    -4.201000000
H    -1.807000000     3.366000000    -5.157000000
O    -0.715000000    -3.315000000     5.759000000
H    -1.309000000    -3.461000000     5.023000000
H    -0.095000000    -2.659000000     5.440000000
O     0.322000000    -5.628000000     3.337000000
H     0.635000000    -6.130000000     4.090000000
H    -0.631000000    -5.631000000     3.426000000
O    -2.711000000    -2.956000000     3.858000000
H    -2.905000000    -2.302000000     3.187000000
H    -3.140000000    -3.753000000     3.547000000
O     5.130000000     0.086000000     5.704000000
H     5.832000000    -0.478000000     5.381000000
H     4.862000000     0.596000000     4.939000000
O     0.167000000     5.501000000    -2.893000000
H     0.291000000     4.982000000    -3.687000000
H     1.006000000     5.945000000    -2.764000000
O     4.539000000     1.001000000     2.841000000
H     4.652000000     0.121000000     2.484000000
H     5.351000000     1.457000000     2.617000000
