144
-2830.74188
O    -1.519000000    -3.546000000    -0.971000000
H    -2.104000000    -3.400000000    -0.227000000
H    -1.556000000    -2.728000000    -1.468000000
O     5.344000000    -2.185000000     4.690000000
H     5.417000000    -1.375000000     4.186000000
H     4.528000000    -2.583000000     4.385000000
O     4.089000000    -5.233000000     2.659000000
H     4.214000000    -4.346000000     2.320000000
H     3.585000000    -5.113000000     3.464000000
O    -2.422000000    -0.974000000     6.016000000
H    -3.322000000    -0.982000000     5.688000000
H    -2.144000000    -0.063000000     5.929000000
O     1.669000000    -4.245000000    -6.190000000
H     1.968000000    -3.496000000    -5.674000000
H     2.264000000    -4.273000000    -6.939000000
O     2.904000000     5.583000000    -2.779000000
H     2.700000000     5.187000000    -3.626000000
H     2.351000000     5.113000000    -2.155000000
O    -4.317000000     6.522000000     2.181000000
H    -4.543000000     6.004000000     1.408000000
H    -4.807000000     6.114000000     2.895000000
O     0.141000000    -6.168000000    -0.927000000
H     0.223000000    -6.507000000    -0.035000000
H    -0.396000000    -5.381000000    -0.835000000
O     4.987000000    -0.271000000    -3.652000000
H     5.894000000    -0.531000000    -3.491000000
H     4.819000000    -0.534000000    -4.556000000
O     1.745000000     1.447000000     5.034000000
H     2.350000000     1.871000000     4.426000000
H     2.266000000     1.291000000     5.822000000
O     4.470000000     0.058000000     0.178000000
H     3.702000000    -0.356000000    -0.216000000
H     4.647000000     0.815000000    -0.381000000
O    -1.202000000     1.202000000     4.853000000
H    -0.268000000     1.410000000     4.817000000
H    -1.619000000     2.019000000     5.123000000
O    -4.102000000     0.451000000    -3.447000000
H    -3.271000000     0.651000000    -3.878000000
H    -3.978000000    -0.425000000    -3.081000000
O     1.566000000     4.224000000    -0.911000000
H     1.092000000     4.905000000    -0.434000000
H     0.907000000     3.552000000    -1.086000000
O     1.023000000    -5.561000000     4.909000000
H     0.653000000    -4.679000000     4.863000000
H     0.760000000    -5.886000000     5.770000000
O     4.919000000    -2.865000000    -1.574000000
H     4.086000000    -3.305000000    -1.739000000
H     5.268000000    -2.677000000    -2.445000000
O    -6.057000000     0.058000000     2.722000000
H    -5.346000000     0.699000000     2.724000000
H    -5.628000000    -0.775000000     2.919000000
O    -2.794000000     6.703000000    -1.156000000
H    -2.152000000     6.545000000    -0.464000000
H    -3.616000000     6.360000000    -0.804000000
O     5.054000000    -0.051000000     2.997000000
H     4.567000000     0.763000000     3.121000000
H     5.058000000    -0.185000000     2.049000000
O    -3.487000000    -2.734000000     1.035000000
H    -4.123000000    -3.326000000     0.631000000
H    -3.847000000    -1.860000000     0.889000000
O     2.011000000    -1.401000000    -5.173000000
H     2.073000000    -0.547000000    -5.602000000
H     2.919000000    -1.650000000    -5.004000000
O    -5.852000000     1.597000000    -1.827000000
H    -5.325000000     1.083000000    -2.439000000
H    -5.239000000     2.234000000    -1.460000000
O    -2.085000000    -4.945000000    -3.221000000
H    -1.696000000    -4.609000000    -2.414000000
H    -1.362000000    -5.382000000    -3.672000000
O    -3.519000000     2.439000000     3.126000000
H    -3.181000000     1.544000000     3.106000000
H    -3.159000000     2.849000000     2.340000000
O    -2.256000000     3.463000000    -4.300000000
H    -1.853000000     2.596000000    -4.348000000
H    -1.559000000     4.035000000    -3.980000000
O    -5.126000000    -0.721000000    -0.082000000
H    -5.081000000    -0.041000000    -0.754000000
H    -6.045000000    -0.987000000    -0.070000000
O     3.811000000     4.048000000     0.783000000
H     4.654000000     4.067000000     0.330000000
H     3.173000000     3.861000000     0.095000000
O     0.912000000     2.169000000    -4.807000000
H     1.431000000     1.702000000    -5.462000000
H     1.510000000     2.288000000    -4.069000000
O    -3.837000000     3.769000000    -2.026000000
H    -3.373000000     3.797000000    -2.862000000
H    -3.179000000     3.476000000    -1.396000000
O     2.783000000    -4.719000000    -2.177000000
H     1.899000000    -4.893000000    -1.853000000
H     3.338000000    -5.336000000    -1.701000000
O    -2.154000000    -4.115000000     3.008000000
H    -2.318000000    -4.968000000     2.606000000
H    -2.674000000    -3.501000000     2.489000000
O     3.338000000     1.886000000    -3.103000000
H     3.565000000     0.981000000    -2.887000000
H     3.861000000     2.085000000    -3.880000000
O     4.743000000    -2.994000000     1.110000000
H     4.355000000    -2.128000000     1.238000000
H     4.852000000    -3.070000000     0.162000000
O    -3.205000000    -0.181000000     2.836000000
H    -2.478000000    -0.145000000     3.458000000
H    -2.859000000    -0.675000000     2.092000000
O    -3.089000000    -1.902000000    -2.872000000
H    -2.262000000    -1.475000000    -3.097000000
H    -2.979000000    -2.806000000    -3.166000000
O    -1.752000000     5.749000000     1.202000000
H    -1.842000000     4.828000000     0.957000000
H    -2.647000000     6.037000000     1.382000000
O    -6.028000000     3.383000000     2.278000000
H    -5.322000000     2.933000000     2.742000000
H    -6.788000000     2.810000000     2.383000000
O     3.552000000    -6.203000000    -0.167000000
H     3.421000000    -7.150000000    -0.216000000
H     3.750000000    -6.036000000     0.755000000
O    -0.546000000     5.136000000    -2.723000000
H    -0.719000000     4.462000000    -2.066000000
H    -0.733000000     5.961000000    -2.275000000
O    -1.655000000     0.680000000    -4.527000000
H    -0.819000000     1.138000000    -4.611000000
H    -1.425000000    -0.248000000    -4.563000000
O    -0.877000000    -1.876000000    -4.536000000
H     0.072000000    -1.794000000    -4.625000000
H    -1.137000000    -2.448000000    -5.259000000
O    -3.057000000     7.531000000    -3.643000000
H    -2.209000000     7.629000000    -4.076000000
H    -2.839000000     7.302000000    -2.740000000
O     1.201000000     4.922000000    -5.084000000
H     0.899000000     5.090000000    -4.191000000
H     0.982000000     4.003000000    -5.242000000
O    -5.002000000     4.915000000     0.213000000
H    -4.843000000     4.651000000    -0.693000000
H    -5.342000000     4.127000000     0.636000000
O    -0.130000000    -2.860000000     4.338000000
H    -0.803000000    -2.331000000     4.767000000
H    -0.567000000    -3.223000000     3.568000000
O     0.574000000     6.722000000     0.147000000
H     0.489000000     7.639000000    -0.114000000
H    -0.193000000     6.557000000     0.696000000
O    -0.798000000     6.761000000     3.683000000
H    -1.153000000     6.188000000     3.003000000
H    -0.866000000     6.247000000     4.488000000
O     1.930000000    -1.171000000     4.485000000
H     1.131000000    -1.700000000     4.485000000
H     1.623000000    -0.274000000     4.618000000
