144
-2819.29838
O    -1.518000000    -4.752000000    -2.677000000
H    -2.386000000    -4.849000000    -3.069000000
H    -1.633000000    -5.035000000    -1.770000000
O    -4.707000000    -3.423000000    -1.633000000
H    -5.246000000    -3.331000000    -2.418000000
H    -4.820000000    -2.596000000    -1.165000000
O    -3.507000000     6.388000000     0.194000000
H    -3.466000000     5.546000000     0.649000000
H    -3.328000000     7.037000000     0.874000000
O     0.745000000     5.338000000     3.123000000
H     1.009000000     4.418000000     3.153000000
H     1.543000000     5.808000000     2.882000000
O     5.522000000    -2.941000000     2.251000000
H     6.022000000    -2.675000000     3.023000000
H     6.188000000    -3.176000000     1.604000000
O     2.775000000     4.477000000     0.300000000
H     1.891000000     4.483000000    -0.066000000
H     3.346000000     4.344000000    -0.457000000
O     3.369000000    -3.443000000    -2.713000000
H     2.635000000    -3.601000000    -3.306000000
H     3.337000000    -4.172000000    -2.093000000
O     1.026000000    -5.236000000    -3.354000000
H     0.218000000    -5.092000000    -2.863000000
H     1.203000000    -6.171000000    -3.256000000
O    -5.142000000     1.898000000    -3.007000000
H    -4.309000000     2.006000000    -2.548000000
H    -5.057000000     2.447000000    -3.787000000
O    -1.608000000     6.930000000     2.629000000
H    -0.869000000     6.326000000     2.701000000
H    -1.242000000     7.707000000     2.206000000
O     1.309000000     2.561000000     3.935000000
H     1.193000000     1.641000000     4.170000000
H     1.528000000     2.994000000     4.760000000
O     6.094000000     0.440000000    -0.184000000
H     5.699000000     0.195000000     0.653000000
H     6.578000000     1.244000000     0.005000000
O    -2.203000000     2.704000000     3.610000000
H    -1.286000000     2.975000000     3.609000000
H    -2.427000000     2.619000000     4.537000000
O    -1.368000000     5.601000000    -3.718000000
H    -1.575000000     5.958000000    -4.582000000
H    -2.210000000     5.303000000    -3.374000000
O     5.440000000     0.028000000     2.332000000
H     5.167000000     0.946000000     2.319000000
H     4.739000000    -0.423000000     2.803000000
O    -1.827000000    -4.225000000     1.764000000
H    -2.237000000    -3.404000000     2.036000000
H    -1.567000000    -4.646000000     2.584000000
O    -0.234000000    -1.911000000    -4.039000000
H     0.194000000    -1.481000000    -3.298000000
H    -0.254000000    -2.837000000    -3.799000000
O    -6.151000000     4.823000000     0.291000000
H    -6.446000000     3.955000000     0.014000000
H    -5.383000000     4.653000000     0.837000000
O    -7.183000000     2.993000000    -1.375000000
H    -7.615000000     3.515000000    -2.051000000
H    -6.633000000     2.378000000    -1.861000000
O    -2.852000000    -1.490000000    -3.993000000
H    -3.050000000    -0.595000000    -3.714000000
H    -1.902000000    -1.500000000    -4.108000000
O    -0.623000000    -5.767000000     3.791000000
H    -0.971000000    -6.572000000     3.406000000
H    -0.308000000    -6.032000000     4.655000000
O     3.715000000    -0.798000000     5.132000000
H     3.379000000    -1.156000000     4.310000000
H     3.496000000    -1.459000000     5.789000000
O    -4.866000000     2.523000000    -5.887000000
H    -3.938000000     2.300000000    -5.810000000
H    -5.041000000     2.494000000    -6.828000000
O    -1.878000000     0.009000000     2.042000000
H    -2.195000000     0.878000000     2.291000000
H    -1.081000000     0.179000000     1.541000000
O     3.051000000     6.546000000     2.312000000
H     3.291000000     5.830000000     1.724000000
H     2.755000000     7.246000000     1.729000000
O    -1.883000000    -5.986000000    -0.149000000
H    -2.631000000    -6.560000000     0.017000000
H    -1.914000000    -5.341000000     0.557000000
O     3.417000000     3.813000000    -2.483000000
H     2.840000000     3.762000000    -3.245000000
H     3.907000000     2.991000000    -2.499000000
O    -3.408000000     4.797000000    -2.130000000
H    -3.471000000     5.447000000    -1.430000000
H    -3.226000000     3.974000000    -1.676000000
O     5.942000000    -1.768000000    -3.845000000
H     5.244000000    -2.152000000    -3.315000000
H     5.621000000    -0.895000000    -4.067000000
O     1.059000000    -5.896000000     1.161000000
H     0.671000000    -6.532000000     0.559000000
H     0.311000000    -5.420000000     1.521000000
O     0.255000000    -0.040000000     5.768000000
H     0.710000000     0.209000000     6.572000000
H    -0.017000000     0.791000000     5.379000000
O     3.111000000    -5.292000000    -0.629000000
H     3.018000000    -5.094000000     0.303000000
H     2.774000000    -6.183000000    -0.719000000
O     1.859000000     0.606000000    -2.916000000
H     2.040000000     0.861000000    -2.011000000
H     1.052000000     1.070000000    -3.139000000
O    -4.945000000     5.342000000    -4.448000000
H    -4.772000000     5.189000000    -3.519000000
H    -4.793000000     4.493000000    -4.862000000
O    -5.152000000    -0.597000000    -1.075000000
H    -5.202000000    -0.111000000    -0.252000000
H    -4.547000000    -0.089000000    -1.617000000
O     1.231000000     3.955000000    -4.772000000
H     0.780000000     4.793000000    -4.661000000
H     0.576000000     3.298000000    -4.538000000
O    -5.140000000     1.320000000     0.815000000
H    -5.132000000     2.255000000     1.020000000
H    -4.958000000     0.890000000     1.650000000
O     5.813000000    -3.849000000    -1.103000000
H     4.970000000    -3.670000000    -0.685000000
H     6.266000000    -3.006000000    -1.098000000
O     0.028000000     4.934000000    -0.867000000
H    -0.138000000     4.980000000    -1.809000000
H    -0.612000000     4.301000000    -0.542000000
O    -3.857000000     3.919000000     1.620000000
H    -3.164000000     3.539000000     1.081000000
H    -3.633000000     3.662000000     2.515000000
O     4.880000000     1.671000000    -2.273000000
H     5.164000000     1.467000000    -1.382000000
H     5.593000000     1.356000000    -2.830000000
O    -0.998000000     2.303000000    -4.124000000
H    -1.629000000     2.445000000    -3.418000000
H    -1.502000000     1.864000000    -4.810000000
O    -1.490000000    -2.081000000     5.459000000
H    -2.015000000    -1.810000000     4.706000000
H    -0.856000000    -1.374000000     5.576000000
O     2.831000000    -5.874000000     3.159000000
H     2.069000000    -6.079000000     2.617000000
H     3.456000000    -5.475000000     2.554000000
O    -3.299000000    -2.144000000     2.848000000
H    -2.777000000    -1.600000000     2.258000000
H    -3.965000000    -1.551000000     3.194000000
O     4.228000000     2.002000000     5.006000000
H     4.128000000     1.051000000     5.023000000
H     4.383000000     2.210000000     4.084000000
O    -0.028000000     7.606000000     0.101000000
H    -0.026000000     6.865000000    -0.505000000
H     0.891000000     7.869000000     0.160000000
O     4.542000000     2.526000000     2.106000000
H     3.717000000     2.885000000     1.780000000
H     5.100000000     3.292000000     2.240000000
