144
-2799.96150
O    -2.941000000    -2.722000000    -6.938000000
H    -3.217000000    -2.753000000    -6.022000000
H    -3.130000000    -1.825000000    -7.215000000
O     2.973000000    -2.848000000    -4.585000000
H     2.382000000    -3.123000000    -3.883000000
H     2.664000000    -1.976000000    -4.830000000
O    -1.933000000     6.462000000     0.648000000
H    -1.605000000     5.888000000    -0.045000000
H    -1.906000000     7.339000000     0.265000000
O     2.647000000     0.622000000    -0.922000000
H     1.774000000     0.372000000    -0.621000000
H     2.743000000     1.534000000    -0.648000000
O    -0.677000000     6.104000000    -4.914000000
H     0.031000000     5.471000000    -4.792000000
H    -0.233000000     6.950000000    -4.979000000
O    -1.102000000     0.705000000     4.855000000
H    -0.302000000     0.465000000     5.322000000
H    -1.086000000     1.662000000     4.828000000
O    -3.320000000    -0.020000000    -5.429000000
H    -2.742000000     0.296000000    -4.735000000
H    -3.322000000     0.684000000    -6.077000000
O    -3.995000000     5.274000000     1.511000000
H    -4.260000000     5.679000000     2.337000000
H    -3.220000000     5.767000000     1.241000000
O     1.704000000     2.584000000     4.030000000
H     0.799000000     2.891000000     3.974000000
H     1.634000000     1.696000000     4.379000000
O    -1.141000000     3.689000000    -6.733000000
H    -1.256000000     3.891000000    -5.804000000
H    -1.609000000     2.863000000    -6.857000000
O    -0.913000000     3.413000000     4.235000000
H    -1.004000000     3.661000000     5.155000000
H    -1.427000000     4.065000000     3.760000000
O     5.034000000     2.293000000     1.170000000
H     5.885000000     1.920000000     0.941000000
H     4.687000000     2.625000000     0.342000000
O     1.146000000     5.502000000    -0.051000000
H     1.952000000     5.982000000    -0.240000000
H     0.844000000     5.194000000    -0.905000000
O    -4.691000000     3.996000000    -6.423000000
H    -5.169000000     3.173000000    -6.328000000
H    -3.947000000     3.912000000    -5.826000000
O     0.454000000    -4.053000000    -2.940000000
H     0.190000000    -4.463000000    -2.116000000
H    -0.166000000    -3.333000000    -3.058000000
O    -5.464000000    -1.418000000    -6.114000000
H    -4.668000000    -0.916000000    -5.940000000
H    -6.057000000    -1.181000000    -5.401000000
O     2.603000000    -0.097000000    -5.157000000
H     1.750000000     0.316000000    -5.024000000
H     3.145000000     0.592000000    -5.543000000
O    -3.047000000     5.993000000    -3.337000000
H    -2.180000000     6.277000000    -3.627000000
H    -3.554000000     6.802000000    -3.271000000
O     0.171000000     0.854000000    -5.930000000
H    -0.324000000     0.795000000    -5.113000000
H    -0.435000000     0.539000000    -6.601000000
O    -2.910000000    -2.462000000    -1.961000000
H    -2.407000000    -1.695000000    -1.686000000
H    -2.557000000    -2.684000000    -2.823000000
O     2.177000000    -4.421000000     1.190000000
H     2.094000000    -4.032000000     2.061000000
H     2.368000000    -5.344000000     1.357000000
O    -5.401000000    -1.327000000    -2.020000000
H    -4.592000000    -1.835000000    -2.074000000
H    -6.084000000    -1.979000000    -1.864000000
O     2.179000000    -6.795000000    -0.382000000
H     1.412000000    -6.334000000    -0.721000000
H     2.193000000    -7.623000000    -0.862000000
O    -4.180000000    -4.598000000     0.059000000
H    -3.689000000    -4.085000000    -0.583000000
H    -5.096000000    -4.489000000    -0.196000000
O    -3.279000000     2.557000000     0.516000000
H    -3.844000000     3.146000000     1.017000000
H    -2.856000000     3.123000000    -0.129000000
O     1.301000000     6.097000000     2.721000000
H     1.085000000     6.003000000     1.793000000
H     2.100000000     5.582000000     2.834000000
O    -2.664000000    -0.061000000     2.587000000
H    -2.088000000     0.193000000     3.308000000
H    -2.429000000     0.531000000     1.873000000
O     3.005000000     3.268000000    -0.709000000
H     2.350000000     3.909000000    -0.984000000
H     3.732000000     3.392000000    -1.320000000
O     5.748000000    -1.644000000     2.163000000
H     6.567000000    -2.073000000     2.413000000
H     5.541000000    -2.005000000     1.301000000
O    -2.793000000     3.436000000    -4.505000000
H    -3.129000000     4.264000000    -4.162000000
H    -2.181000000     3.131000000    -3.836000000
O     3.907000000    -0.718000000    -2.681000000
H     3.370000000    -0.236000000    -2.052000000
H     3.571000000    -0.450000000    -3.537000000
O    -3.459000000    -0.224000000     6.209000000
H    -4.006000000    -0.733000000     5.610000000
H    -2.953000000     0.353000000     5.637000000
O     0.693000000    -5.035000000     3.377000000
H     0.151000000    -5.349000000     2.653000000
H     0.072000000    -4.637000000     3.987000000
O     4.415000000     0.394000000     3.523000000
H     4.419000000     1.169000000     2.961000000
H     4.537000000    -0.340000000     2.921000000
O     1.418000000     0.486000000     5.965000000
H     1.186000000     0.901000000     6.796000000
H     2.162000000    -0.077000000     6.178000000
O     3.986000000    -0.808000000     6.153000000
H     4.634000000    -1.391000000     6.549000000
H     4.343000000    -0.607000000     5.288000000
O    -0.953000000    -2.125000000    -4.373000000
H    -1.208000000    -2.121000000    -5.295000000
H    -1.143000000    -1.238000000    -4.067000000
O    -5.801000000     1.437000000    -0.885000000
H    -4.920000000     1.652000000    -0.578000000
H    -5.795000000     0.485000000    -0.985000000
O     4.564000000    -3.309000000    -0.067000000
H     3.738000000    -3.541000000     0.358000000
H     4.482000000    -3.657000000    -0.956000000
O     0.736000000     4.295000000    -2.465000000
H     1.176000000     4.400000000    -3.309000000
H     0.098000000     3.597000000    -2.614000000
O    -2.317000000     4.353000000    -1.310000000
H    -2.025000000     3.654000000    -1.895000000
H    -2.579000000     5.063000000    -1.897000000
O    -1.566000000    -2.794000000     4.190000000
H    -1.682000000    -1.861000000     4.010000000
H    -2.206000000    -2.988000000     4.874000000
O     3.277000000    -5.465000000     5.682000000
H     3.152000000    -4.831000000     4.976000000
H     4.227000000    -5.549000000     5.763000000
O     0.854000000    -2.504000000     5.675000000
H     1.308000000    -1.759000000     5.281000000
H     0.224000000    -2.779000000     5.009000000
O     0.098000000    -5.069000000    -0.470000000
H     0.725000000    -4.665000000     0.130000000
H    -0.677000000    -5.232000000     0.067000000
O     5.529000000    -3.933000000     3.887000000
H     5.507000000    -3.027000000     3.577000000
H     6.227000000    -3.944000000     4.543000000
O     1.864000000     4.751000000    -4.977000000
H     1.982000000     4.343000000    -5.835000000
H     2.475000000     5.488000000    -4.976000000
O     3.182000000     4.153000000     2.449000000
H     3.368000000     3.593000000     1.696000000
H     2.600000000     3.630000000     3.000000000
