144
-2819.66381
O    -3.837000000    -0.226000000     3.185000000
H    -4.383000000     0.266000000     2.572000000
H    -3.606000000     0.409000000     3.862000000
O     4.496000000     3.475000000    -1.728000000
H     5.453000000     3.456000000    -1.750000000
H     4.230000000     2.714000000    -2.244000000
O    -5.737000000     4.367000000     1.539000000
H    -5.864000000     4.999000000     0.831000000
H    -5.153000000     4.810000000     2.154000000
O     2.705000000     0.868000000     0.960000000
H     1.974000000     0.639000000     0.386000000
H     3.472000000     0.485000000     0.534000000
O    -2.190000000     5.591000000    -5.122000000
H    -2.295000000     4.650000000    -4.982000000
H    -1.343000000     5.798000000    -4.725000000
O    -0.642000000    -7.702000000     1.474000000
H    -0.912000000    -7.100000000     2.167000000
H    -1.458000000    -7.945000000     1.037000000
O     0.655000000     2.920000000    -6.763000000
H     1.317000000     3.521000000    -6.420000000
H    -0.135000000     3.123000000    -6.261000000
O     3.880000000    -1.879000000    -3.559000000
H     3.112000000    -2.404000000    -3.784000000
H     4.439000000    -2.473000000    -3.059000000
O    -1.801000000     4.379000000     2.261000000
H    -1.819000000     3.855000000     1.460000000
H    -2.723000000     4.533000000     2.467000000
O    -0.404000000    -4.537000000    -2.082000000
H    -0.804000000    -5.396000000    -2.222000000
H    -0.755000000    -4.244000000    -1.241000000
O     1.408000000    -5.431000000     5.297000000
H     1.357000000    -4.477000000     5.252000000
H     0.506000000    -5.726000000     5.176000000
O    -3.321000000    -2.913000000     2.277000000
H    -3.392000000    -3.265000000     3.165000000
H    -3.203000000    -1.972000000     2.402000000
O    -3.911000000     5.670000000     3.475000000
H    -3.001000000     5.884000000     3.683000000
H    -4.305000000     6.508000000     3.235000000
O     6.525000000     0.811000000     0.679000000
H     6.272000000     1.714000000     0.871000000
H     5.956000000     0.551000000    -0.045000000
O    -3.171000000    -4.020000000     4.911000000
H    -3.750000000    -4.689000000     5.277000000
H    -3.687000000    -3.215000000     4.938000000
O     2.514000000    -5.121000000     2.089000000
H     3.107000000    -4.436000000     2.397000000
H     2.284000000    -5.612000000     2.878000000
O     5.990000000    -3.252000000    -1.810000000
H     6.871000000    -3.369000000    -2.164000000
H     5.635000000    -4.139000000    -1.752000000
O    -3.192000000     8.438000000    -1.376000000
H    -3.065000000     7.490000000    -1.348000000
H    -2.319000000     8.792000000    -1.546000000
O     3.400000000     3.541000000     1.139000000
H     3.638000000     3.799000000     0.248000000
H     2.939000000     2.709000000     1.032000000
O    -4.902000000    -0.109000000    -1.045000000
H    -4.017000000    -0.042000000    -0.687000000
H    -5.084000000     0.763000000    -1.397000000
O    -1.462000000     2.975000000    -4.247000000
H    -1.607000000     2.857000000    -3.308000000
H    -1.242000000     2.100000000    -4.567000000
O     1.279000000     7.294000000    -0.645000000
H     1.608000000     7.788000000    -1.395000000
H     1.113000000     6.417000000    -0.990000000
O     0.911000000    -5.001000000    -4.548000000
H     0.116000000    -5.011000000    -5.081000000
H     0.635000000    -4.627000000    -3.712000000
O     2.755000000    -0.256000000     6.210000000
H     2.987000000    -0.477000000     5.308000000
H     2.702000000     0.700000000     6.217000000
O    -2.220000000    -3.085000000    -0.227000000
H    -2.723000000    -3.198000000     0.579000000
H    -1.811000000    -2.224000000    -0.136000000
O    -6.590000000     3.139000000    -1.734000000
H    -7.441000000     2.789000000    -1.996000000
H    -6.797000000     3.956000000    -1.279000000
O    -4.412000000     2.077000000     1.286000000
H    -3.653000000     2.457000000     0.843000000
H    -5.110000000     2.719000000     1.156000000
O     0.707000000     3.878000000     3.388000000
H    -0.055000000     4.128000000     2.866000000
H     1.367000000     4.539000000     3.179000000
O    -3.886000000     2.312000000    -2.050000000
H    -4.648000000     2.743000000    -1.663000000
H    -3.141000000     2.656000000    -1.557000000
O     4.980000000    -0.789000000    -1.054000000
H     4.559000000    -0.479000000    -1.856000000
H     5.422000000    -1.598000000    -1.313000000
O     1.536000000    -2.812000000     4.797000000
H     1.631000000    -2.319000000     3.982000000
H     2.151000000    -2.396000000     5.402000000
O     1.606000000     3.369000000    -3.669000000
H     1.728000000     4.052000000    -4.329000000
H     0.657000000     3.267000000    -3.602000000
O    -0.396000000     0.599000000    -4.578000000
H    -0.824000000    -0.120000000    -4.112000000
H     0.338000000     0.186000000    -5.032000000
O     1.933000000    -6.918000000    -2.534000000
H     1.684000000    -6.460000000    -1.732000000
H     2.087000000    -6.220000000    -3.171000000
O     4.617000000    -3.471000000     2.940000000
H     5.558000000    -3.313000000     2.865000000
H     4.488000000    -3.718000000     3.856000000
O     4.885000000    -5.669000000     0.043000000
H     4.213000000    -5.268000000     0.595000000
H     4.465000000    -6.452000000    -0.314000000
O     1.224000000     4.749000000    -1.231000000
H     1.765000000     4.236000000    -1.832000000
H     0.326000000     4.493000000    -1.439000000
O     0.121000000     6.682000000    -3.927000000
H    -0.176000000     7.502000000    -4.322000000
H    -0.120000000     6.760000000    -3.003000000
O    -4.818000000     1.234000000    -4.400000000
H    -4.340000000     1.580000000    -3.646000000
H    -4.250000000     0.549000000    -4.751000000
O     3.238000000    -0.781000000     3.320000000
H     3.896000000    -1.373000000     2.957000000
H     3.005000000    -0.206000000     2.591000000
O     3.960000000     1.176000000    -3.878000000
H     3.132000000     1.643000000    -3.985000000
H     3.817000000     0.333000000    -4.309000000
O     1.133000000    -6.105000000    -0.054000000
H     1.693000000    -5.644000000     0.571000000
H     0.496000000    -6.567000000     0.491000000
O    -3.447000000    -4.490000000    -2.078000000
H    -2.908000000    -4.261000000    -1.320000000
H    -3.411000000    -3.716000000    -2.640000000
O     1.234000000     2.158000000     5.391000000
H     2.166000000     2.061000000     5.194000000
H     0.857000000     2.520000000     4.589000000
O    -3.008000000     1.446000000     5.355000000
H    -2.139000000     1.270000000     5.714000000
H    -3.235000000     2.314000000     5.690000000
O    -0.915000000    -1.931000000    -3.761000000
H    -1.821000000    -2.214000000    -3.881000000
H    -0.593000000    -2.462000000    -3.033000000
O    -2.333000000     5.893000000    -0.640000000
H    -1.780000000     6.334000000     0.006000000
H    -2.285000000     4.967000000    -0.404000000
O    -1.012000000    -2.958000000     6.549000000
H    -0.363000000    -2.414000000     6.101000000
H    -1.544000000    -3.325000000     5.843000000
