144
-2858.11498
O    -1.162000000     4.045000000     3.869000000
H    -0.244000000     4.314000000     3.826000000
H    -1.424000000     3.941000000     2.955000000
O    -0.133000000    -0.999000000     5.999000000
H    -0.160000000    -1.729000000     5.382000000
H     0.704000000    -1.098000000     6.452000000
O     3.305000000     1.446000000    -2.658000000
H     3.689000000     0.667000000    -3.060000000
H     3.130000000     1.187000000    -1.753000000
O     4.442000000    -0.995000000    -3.442000000
H     5.358000000    -0.802000000    -3.243000000
H     4.442000000    -1.914000000    -3.708000000
O     0.084000000    -3.195000000     4.376000000
H     0.348000000    -3.903000000     3.789000000
H    -0.736000000    -3.499000000     4.764000000
O    -0.691000000    -3.976000000    -3.293000000
H    -1.566000000    -4.174000000    -3.628000000
H    -0.840000000    -3.336000000    -2.598000000
O    -1.713000000    -2.084000000    -1.864000000
H    -1.933000000    -1.331000000    -2.413000000
H    -0.994000000    -1.776000000    -1.312000000
O     2.620000000    -2.201000000     4.974000000
H     1.849000000    -2.713000000     4.729000000
H     3.057000000    -2.013000000     4.143000000
O     4.337000000    -2.497000000     2.543000000
H     5.085000000    -2.779000000     2.017000000
H     4.140000000    -1.616000000     2.226000000
O    -1.255000000     2.129000000    -5.419000000
H    -1.216000000     2.603000000    -4.588000000
H    -2.174000000     2.181000000    -5.682000000
O    -1.924000000     5.074000000    -3.368000000
H    -1.490000000     4.267000000    -3.093000000
H    -1.617000000     5.735000000    -2.747000000
O     2.162000000     6.210000000    -1.992000000
H     1.803000000     5.377000000    -2.299000000
H     2.968000000     6.324000000    -2.496000000
O     1.019000000    -6.033000000    -3.375000000
H     0.369000000    -5.346000000    -3.228000000
H     1.187000000    -6.006000000    -4.317000000
O    -1.092000000    -5.397000000     0.055000000
H    -1.504000000    -4.542000000     0.182000000
H    -1.655000000    -5.842000000    -0.579000000
O    -1.758000000     0.992000000     4.472000000
H    -1.543000000     1.874000000     4.775000000
H    -1.183000000     0.418000000     4.979000000
O    -4.365000000    -1.152000000     0.939000000
H    -4.150000000    -0.874000000     1.829000000
H    -4.564000000    -0.338000000     0.476000000
O     2.945000000    -4.924000000     2.819000000
H     3.463000000    -4.126000000     2.930000000
H     3.345000000    -5.367000000     2.071000000
O    -6.610000000     3.650000000    -1.719000000
H    -6.872000000     4.113000000    -2.515000000
H    -5.734000000     3.984000000    -1.525000000
O     0.178000000    -5.691000000     2.713000000
H     0.910000000    -5.203000000     2.334000000
H    -0.534000000    -5.580000000     2.084000000
O     3.507000000    -5.939000000     0.311000000
H     3.410000000    -5.049000000    -0.029000000
H     2.703000000    -6.386000000     0.048000000
O    -1.415000000     4.700000000     1.262000000
H    -1.284000000     4.101000000     0.526000000
H    -1.216000000     5.565000000     0.905000000
O     2.981000000     1.222000000     5.495000000
H     2.914000000     0.812000000     4.633000000
H     3.086000000     0.489000000     6.101000000
O    -1.051000000     4.719000000    -7.109000000
H    -1.968000000     4.883000000    -6.889000000
H    -0.646000000     4.469000000    -6.279000000
O    -1.373000000     7.907000000     0.461000000
H    -0.687000000     8.477000000     0.809000000
H    -1.056000000     7.652000000    -0.405000000
O     2.011000000     3.685000000     0.974000000
H     2.025000000     4.457000000     1.539000000
H     1.103000000     3.383000000     1.003000000
O    -2.334000000     0.134000000    -3.208000000
H    -1.733000000     0.826000000    -3.485000000
H    -3.123000000     0.599000000    -2.931000000
O    -3.828000000     4.354000000    -1.188000000
H    -3.050000000     3.819000000    -1.034000000
H    -3.513000000     5.091000000    -1.711000000
O    -4.129000000     3.870000000     1.921000000
H    -4.286000000     4.421000000     2.688000000
H    -3.314000000     4.206000000     1.548000000
O    -5.774000000     2.021000000     0.491000000
H    -5.982000000     2.512000000    -0.304000000
H    -5.161000000     2.582000000     0.966000000
O     3.865000000     0.192000000     2.578000000
H     3.522000000     0.495000000     1.737000000
H     4.316000000     0.954000000     2.942000000
O     0.362000000     0.041000000    -6.204000000
H     0.006000000     0.815000000    -5.768000000
H     1.291000000     0.238000000    -6.323000000
O     3.917000000    -3.378000000    -0.680000000
H     4.847000000    -3.221000000    -0.841000000
H     3.529000000    -2.504000000    -0.649000000
O     1.598000000     3.653000000    -3.185000000
H     2.218000000     2.943000000    -3.016000000
H     0.739000000     3.232000000    -3.157000000
O     1.231000000    -6.761000000    -0.704000000
H     1.434000000    -6.669000000    -1.635000000
H     0.460000000    -6.209000000    -0.571000000
O    -2.985000000    -3.320000000     0.283000000
H    -3.711000000    -2.728000000     0.478000000
H    -2.627000000    -2.996000000    -0.543000000
O     3.770000000    -3.415000000    -4.788000000
H     2.887000000    -3.046000000    -4.804000000
H     3.733000000    -4.154000000    -5.396000000
O    -2.458000000    -4.689000000     4.376000000
H    -2.647000000    -5.602000000     4.593000000
H    -3.082000000    -4.474000000     3.682000000
O     1.239000000     5.397000000    -5.265000000
H     1.703000000     5.071000000    -6.036000000
H     1.466000000     4.780000000    -4.570000000
O    -4.055000000     3.175000000    -4.607000000
H    -3.296000000     3.649000000    -4.266000000
H    -4.350000000     2.635000000    -3.874000000
O    -4.807000000     1.295000000    -2.706000000
H    -5.527000000     1.852000000    -2.409000000
H    -5.231000000     0.482000000    -2.981000000
O     3.420000000     1.529000000     0.125000000
H     4.332000000     1.801000000     0.022000000
H     2.963000000     2.322000000     0.403000000
O    -5.295000000     2.171000000     3.927000000
H    -4.750000000     2.584000000     3.257000000
H    -5.194000000     1.231000000     3.773000000
O     4.773000000     3.524000000    -3.500000000
H     4.083000000     2.923000000    -3.220000000
H     4.841000000     4.160000000    -2.788000000
O     1.104000000    -2.549000000    -5.145000000
H     0.444000000    -2.960000000    -4.586000000
H     0.790000000    -1.652000000    -5.266000000
O    -3.931000000    -4.979000000     2.169000000
H    -3.516000000    -4.574000000     1.407000000
H    -3.678000000    -5.901000000     2.118000000
O    -0.351000000     6.934000000    -1.889000000
H     0.581000000     6.791000000    -1.730000000
H    -0.377000000     7.532000000    -2.637000000
O    -3.945000000    -0.351000000     3.545000000
H    -3.155000000     0.095000000     3.849000000
H    -4.084000000    -1.052000000     4.182000000
O    -3.971000000    -2.468000000     5.442000000
H    -4.772000000    -2.972000000     5.297000000
H    -3.284000000    -2.982000000     5.017000000
