144
-2799.98784
O    -5.031000000    -0.977000000    -0.375000000
H    -4.425000000    -1.676000000    -0.130000000
H    -5.900000000    -1.359000000    -0.253000000
O     3.324000000    -1.738000000     0.222000000
H     2.453000000    -1.350000000     0.146000000
H     3.531000000    -1.681000000     1.155000000
O    -4.005000000    -4.909000000     3.555000000
H    -4.833000000    -4.442000000     3.443000000
H    -3.516000000    -4.382000000     4.187000000
O     1.486000000    -4.030000000     3.522000000
H     0.792000000    -3.444000000     3.824000000
H     2.158000000    -3.445000000     3.173000000
O    -2.683000000     3.336000000     1.598000000
H    -3.025000000     2.580000000     1.120000000
H    -1.980000000     3.673000000     1.042000000
O     2.709000000    -0.347000000     6.551000000
H     1.834000000    -0.609000000     6.836000000
H     3.297000000    -0.972000000     6.976000000
O     4.059000000     3.641000000     3.002000000
H     3.124000000     3.833000000     2.923000000
H     4.491000000     4.469000000     2.795000000
O     1.616000000     5.541000000    -1.145000000
H     1.462000000     6.325000000    -0.619000000
H     1.174000000     4.840000000    -0.666000000
O     0.656000000    -3.932000000    -5.569000000
H     0.043000000    -3.534000000    -6.186000000
H     1.155000000    -3.195000000    -5.217000000
O     3.811000000    -4.552000000     5.074000000
H     3.178000000    -4.375000000     4.379000000
H     3.446000000    -4.120000000     5.846000000
O    -0.612000000    -2.073000000     4.469000000
H    -0.309000000    -1.200000000     4.718000000
H    -1.435000000    -1.918000000     4.006000000
O     1.417000000    -6.250000000     2.137000000
H     1.740000000    -5.550000000     2.705000000
H     0.476000000    -6.088000000     2.070000000
O    -1.978000000     7.440000000    -0.569000000
H    -2.467000000     6.748000000    -1.013000000
H    -2.647000000     8.063000000    -0.285000000
O    -1.987000000     4.799000000    -2.916000000
H    -1.353000000     4.994000000    -3.606000000
H    -1.473000000     4.363000000    -2.236000000
O    -3.005000000    -2.194000000    -4.683000000
H    -3.402000000    -2.225000000    -3.813000000
H    -3.731000000    -1.983000000    -5.271000000
O    -0.034000000     0.503000000     5.132000000
H    -0.678000000     0.923000000     4.561000000
H     0.750000000     1.045000000     5.048000000
O    -4.119000000    -3.838000000    -0.344000000
H    -4.540000000    -4.613000000     0.030000000
H    -3.253000000    -4.143000000    -0.615000000
O     1.924000000     2.334000000     5.194000000
H     2.630000000     2.341000000     4.547000000
H     2.372000000     2.244000000     6.035000000
O     2.532000000    -1.805000000    -4.629000000
H     2.733000000    -1.794000000    -5.564000000
H     3.271000000    -1.354000000    -4.220000000
O    -0.553000000    -0.933000000    -5.274000000
H     0.055000000    -1.071000000    -4.547000000
H    -1.339000000    -1.419000000    -5.024000000
O     3.252000000    -4.262000000    -0.910000000
H     3.987000000    -4.485000000    -1.481000000
H     3.501000000    -3.428000000    -0.513000000
O    -2.726000000     2.036000000     4.044000000
H    -2.980000000     2.417000000     3.204000000
H    -2.816000000     1.091000000     3.916000000
O    -1.959000000    -6.659000000     5.355000000
H    -1.023000000    -6.819000000     5.234000000
H    -2.073000000    -5.733000000     5.139000000
O     0.733000000     5.053000000    -3.936000000
H     0.689000000     5.825000000    -3.372000000
H     0.647000000     4.313000000    -3.336000000
O    -2.966000000     0.464000000     0.935000000
H    -3.392000000     0.147000000     0.139000000
H    -2.031000000     0.342000000     0.772000000
O    -1.962000000    -5.804000000    -1.158000000
H    -2.769000000    -6.317000000    -1.210000000
H    -1.371000000    -6.225000000    -1.782000000
O    -4.562000000     6.297000000    -0.697000000
H    -5.508000000     6.167000000    -0.761000000
H    -4.352000000     6.889000000    -1.420000000
O    -0.705000000     4.079000000     4.532000000
H    -1.181000000     3.342000000     4.149000000
H    -0.089000000     3.674000000     5.144000000
O     2.061000000     5.428000000     2.459000000
H     1.203000000     5.298000000     2.056000000
H     2.351000000     6.281000000     2.135000000
O    -2.252000000     0.321000000    -6.993000000
H    -1.565000000     0.025000000    -6.396000000
H    -2.966000000     0.599000000    -6.419000000
O    -3.252000000     2.275000000    -2.473000000
H    -2.625000000     2.135000000    -3.183000000
H    -3.340000000     3.227000000    -2.417000000
O    -1.107000000    -6.258000000    -4.878000000
H    -0.375000000    -6.867000000    -4.972000000
H    -0.696000000    -5.396000000    -4.815000000
O     3.927000000    -2.620000000     2.831000000
H     4.743000000    -2.800000000     2.365000000
H     4.158000000    -1.942000000     3.467000000
O    -1.719000000    -5.754000000     2.039000000
H    -2.470000000    -5.509000000     2.580000000
H    -1.917000000    -5.391000000     1.176000000
O    -3.045000000    -0.600000000     3.397000000
H    -2.941000000    -0.393000000     2.469000000
H    -3.992000000    -0.584000000     3.541000000
O     4.380000000    -5.828000000     1.626000000
H     3.884000000    -6.631000000     1.467000000
H     4.018000000    -5.196000000     1.004000000
O     0.011000000     4.613000000    -6.546000000
H    -0.836000000     5.058000000    -6.556000000
H     0.419000000     4.892000000    -5.726000000
O    -1.248000000     2.030000000    -4.163000000
H    -0.532000000     2.243000000    -3.565000000
H    -0.946000000     2.339000000    -5.018000000
O     3.690000000     1.359000000    -3.109000000
H     4.052000000     0.478000000    -3.202000000
H     3.232000000     1.343000000    -2.268000000
O     1.721000000    -1.201000000    -7.131000000
H     1.180000000    -1.788000000    -7.659000000
H     1.114000000    -0.823000000    -6.494000000
O     4.902000000     0.648000000    -0.662000000
H     4.306000000    -0.086000000    -0.513000000
H     5.248000000     0.855000000     0.206000000
O     2.957000000    -8.235000000     1.126000000
H     2.365000000    -7.509000000     1.321000000
H     2.382000000    -8.996000000     1.043000000
O     4.251000000     4.653000000    -1.830000000
H     3.879000000     4.202000000    -2.589000000
H     3.490000000     4.964000000    -1.340000000
O     3.142000000     3.614000000    -4.944000000
H     2.534000000     4.158000000    -4.443000000
H     3.084000000     2.751000000    -4.535000000
O    -4.576000000     5.288000000    -4.319000000
H    -3.839000000     4.895000000    -3.852000000
H    -4.532000000     6.218000000    -4.096000000
O    -0.221000000     5.859000000     0.938000000
H    -0.625000000     6.534000000     0.392000000
H    -0.389000000     5.041000000     0.472000000
O    -2.357000000    -3.735000000     5.706000000
H    -2.273000000    -3.090000000     6.408000000
H    -1.618000000    -3.554000000     5.125000000
O    -1.690000000     6.442000000     3.422000000
H    -1.093000000     6.607000000     2.692000000
H    -1.247000000     5.777000000     3.949000000
