144
-2807.94563
O    -2.889000000    -3.568000000     1.366000000
H    -1.972000000    -3.842000000     1.360000000
H    -3.348000000    -4.256000000     0.885000000
O     4.598000000    -2.098000000    -0.506000000
H     3.913000000    -2.645000000    -0.889000000
H     4.131000000    -1.337000000    -0.159000000
O     2.448000000     0.677000000     6.800000000
H     2.176000000     0.382000000     5.930000000
H     2.653000000     1.605000000     6.685000000
O    -4.966000000     1.620000000     0.185000000
H    -4.334000000     1.750000000     0.892000000
H    -5.513000000     0.893000000     0.484000000
O     2.463000000    -2.224000000     5.620000000
H     2.020000000    -2.730000000     4.940000000
H     2.955000000    -1.557000000     5.140000000
O    -1.964000000     4.555000000     1.758000000
H    -2.247000000     3.653000000     1.910000000
H    -1.645000000     4.557000000     0.856000000
O     1.930000000     2.834000000     3.735000000
H     1.530000000     1.966000000     3.790000000
H     1.729000000     3.243000000     4.576000000
O    -0.544000000     5.174000000    -4.068000000
H    -1.103000000     5.836000000    -3.661000000
H    -0.718000000     4.375000000    -3.571000000
O    -2.279000000    -1.941000000     3.542000000
H    -2.041000000    -1.129000000     3.094000000
H    -2.470000000    -2.557000000     2.836000000
O     4.354000000    -4.009000000     1.474000000
H     4.792000000    -4.366000000     0.701000000
H     4.299000000    -3.069000000     1.304000000
O    -0.552000000    -5.491000000     2.311000000
H    -0.760000000    -5.223000000     3.206000000
H     0.359000000    -5.779000000     2.353000000
O     0.469000000     0.025000000    -5.593000000
H    -0.055000000    -0.710000000    -5.912000000
H    -0.039000000     0.801000000    -5.830000000
O    -1.426000000     7.560000000     0.725000000
H    -2.186000000     7.794000000     1.258000000
H    -1.167000000     8.379000000     0.304000000
O    -2.041000000     6.546000000    -2.013000000
H    -1.652000000     5.772000000    -1.606000000
H    -1.694000000     7.282000000    -1.510000000
O    -4.244000000     5.192000000    -2.820000000
H    -4.972000000     5.703000000    -2.465000000
H    -3.529000000     5.332000000    -2.200000000
O    -3.790000000    -0.540000000    -1.551000000
H    -3.176000000    -0.827000000    -2.228000000
H    -3.653000000     0.405000000    -1.488000000
O    -2.755000000     1.987000000     4.847000000
H    -2.633000000     2.915000000     5.049000000
H    -3.248000000     1.642000000     5.591000000
O    -3.704000000    -3.718000000    -1.541000000
H    -2.789000000    -3.998000000    -1.524000000
H    -3.767000000    -3.153000000    -2.311000000
O    -0.153000000     1.145000000     5.526000000
H    -1.073000000     1.068000000     5.273000000
H    -0.079000000     0.620000000     6.323000000
O     1.898000000     1.556000000    -3.691000000
H     1.341000000     0.858000000    -4.036000000
H     1.288000000     2.260000000    -3.467000000
O    -1.532000000    -5.419000000    -0.732000000
H    -1.006000000    -5.790000000    -1.441000000
H    -1.136000000    -5.768000000     0.067000000
O    -2.312000000    -0.984000000    -4.028000000
H    -1.917000000    -1.005000000    -4.900000000
H    -3.177000000    -0.598000000    -4.166000000
O    -0.647000000     5.793000000     3.620000000
H    -0.335000000     6.536000000     3.103000000
H    -1.206000000     5.300000000     3.019000000
O    -4.704000000     3.360000000    -4.898000000
H    -4.345000000     3.699000000    -4.079000000
H    -4.082000000     3.644000000    -5.568000000
O    -4.532000000     6.522000000     2.213000000
H    -3.958000000     5.820000000     1.905000000
H    -4.455000000     6.494000000     3.166000000
O     1.565000000     8.539000000    -0.658000000
H     1.574000000     7.582000000    -0.651000000
H     2.405000000     8.783000000    -1.046000000
O    -2.895000000     1.846000000     2.108000000
H    -2.790000000     1.844000000     3.060000000
H    -2.796000000     0.929000000     1.854000000
O     1.282000000    -7.510000000     0.980000000
H     1.370000000    -7.598000000     1.929000000
H     0.408000000    -7.850000000     0.787000000
O     5.250000000    -5.809000000    -0.437000000
H     4.367000000    -5.584000000    -0.731000000
H     5.622000000    -6.312000000    -1.161000000
O     0.088000000     3.963000000     5.953000000
H    -0.166000000     4.537000000     5.231000000
H    -0.421000000     3.164000000     5.814000000
O     2.856000000     5.503000000     3.412000000
H     2.811000000     4.552000000     3.508000000
H     2.131000000     5.832000000     3.944000000
O    -4.597000000     0.281000000    -4.249000000
H    -5.066000000     0.882000000    -3.671000000
H    -4.801000000     0.590000000    -5.132000000
O    -1.521000000    -3.643000000    -3.457000000
H    -2.089000000    -4.347000000    -3.771000000
H    -1.922000000    -2.843000000    -3.796000000
O     3.647000000     0.233000000     3.666000000
H     3.981000000     1.088000000     3.936000000
H     3.625000000     0.276000000     2.710000000
O    -2.754000000    -0.592000000     1.401000000
H    -2.242000000    -0.468000000     0.602000000
H    -3.202000000    -1.428000000     1.272000000
O    -0.896000000     2.205000000    -5.199000000
H    -1.113000000     2.148000000    -4.269000000
H    -0.625000000     3.115000000    -5.326000000
O     6.015000000    -1.746000000     3.913000000
H     5.128000000    -1.391000000     3.845000000
H     5.915000000    -2.540000000     4.439000000
O     3.929000000     2.946000000     1.594000000
H     3.120000000     2.922000000     2.104000000
H     4.623000000     3.027000000     2.249000000
O     4.615000000     2.316000000    -3.275000000
H     4.451000000     2.950000000    -3.973000000
H     3.765000000     1.906000000    -3.119000000
O     0.735000000    -5.159000000    -2.901000000
H     0.291000000    -5.625000000    -3.610000000
H     0.163000000    -4.417000000    -2.706000000
O     0.363000000     4.292000000    -6.577000000
H     0.313000000     4.758000000    -5.742000000
H    -0.457000000     4.508000000    -7.021000000
O     3.380000000     0.481000000     0.484000000
H     2.586000000     0.456000000    -0.050000000
H     3.527000000     1.412000000     0.652000000
O    -2.934000000    -7.040000000     1.772000000
H    -2.447000000    -6.629000000     2.487000000
H    -2.306000000    -7.639000000     1.368000000
O     2.648000000    -4.342000000    -1.136000000
H     2.119000000    -4.684000000    -0.416000000
H     2.189000000    -4.626000000    -1.927000000
O     0.883000000    -5.496000000     5.867000000
H     0.191000000    -4.878000000     5.633000000
H     0.988000000    -5.392000000     6.813000000
O     3.407000000     4.929000000    -0.290000000
H     3.544000000     4.158000000     0.260000000
H     2.497000000     4.858000000    -0.580000000
O     0.676000000     5.950000000    -0.008000000
H     0.004000000     6.426000000     0.481000000
H     0.251000000     5.131000000    -0.263000000
O    -1.250000000    -3.989000000     5.215000000
H    -2.005000000    -4.500000000     5.507000000
H    -1.624000000    -3.311000000     4.652000000
