144
-2835.46891
O     4.833000000     3.277000000     0.571000000
H     3.991000000     3.518000000     0.958000000
H     4.973000000     2.371000000     0.848000000
O    -2.359000000    -2.086000000     1.692000000
H    -1.687000000    -1.892000000     1.039000000
H    -3.101000000    -2.410000000     1.183000000
O     4.882000000    -4.091000000    -1.432000000
H     5.281000000    -4.178000000    -2.298000000
H     4.500000000    -3.213000000    -1.431000000
O     0.560000000     4.443000000    -5.304000000
H     0.432000000     4.747000000    -4.406000000
H     0.464000000     5.230000000    -5.840000000
O     3.845000000    -3.900000000     2.338000000
H     4.338000000    -3.094000000     2.185000000
H     4.300000000    -4.562000000     1.818000000
O     2.418000000     0.341000000     4.350000000
H     1.499000000     0.503000000     4.139000000
H     2.620000000     0.970000000     5.042000000
O     0.873000000    -5.838000000     5.208000000
H     0.417000000    -5.387000000     5.919000000
H     0.949000000    -5.181000000     4.516000000
O     3.044000000     3.309000000     2.679000000
H     2.797000000     3.547000000     3.573000000
H     3.214000000     2.368000000     2.720000000
O    -3.543000000     5.140000000    -1.334000000
H    -3.181000000     5.422000000    -2.174000000
H    -2.972000000     4.424000000    -1.054000000
O    -1.214000000    -5.995000000    -3.045000000
H    -0.781000000    -5.300000000    -3.542000000
H    -1.415000000    -5.595000000    -2.199000000
O    -0.301000000     3.602000000     3.820000000
H    -1.209000000     3.766000000     4.076000000
H    -0.276000000     3.805000000     2.885000000
O    -3.864000000    -0.156000000    -5.646000000
H    -4.045000000     0.714000000    -5.291000000
H    -3.906000000    -0.739000000    -4.888000000
O    -2.833000000     2.689000000    -3.403000000
H    -3.707000000     2.587000000    -3.029000000
H    -2.321000000     3.104000000    -2.708000000
O     2.207000000     7.545000000    -0.181000000
H     3.098000000     7.292000000     0.059000000
H     1.691000000     6.747000000    -0.066000000
O     5.669000000    -5.520000000     0.926000000
H     5.954000000    -6.400000000     0.680000000
H     5.474000000    -5.089000000     0.094000000
O     1.810000000    -1.691000000     6.370000000
H     0.891000000    -1.695000000     6.638000000
H     1.781000000    -1.661000000     5.414000000
O    -3.790000000     1.502000000     0.918000000
H    -3.062000000     1.695000000     0.327000000
H    -3.373000000     1.140000000     1.700000000
O     3.495000000    -1.205000000    -1.175000000
H     3.150000000    -1.280000000    -2.064000000
H     3.106000000    -0.400000000    -0.834000000
O    -0.734000000    -2.814000000     3.878000000
H     0.077000000    -3.290000000     3.698000000
H    -1.315000000    -3.050000000     3.155000000
O     0.118000000     4.554000000    -2.498000000
H    -0.547000000     4.327000000    -1.848000000
H     0.894000000     4.063000000    -2.229000000
O    -3.616000000     6.545000000     3.562000000
H    -3.006000000     6.445000000     2.832000000
H    -4.444000000     6.194000000     3.233000000
O     4.386000000     0.602000000     2.273000000
H     4.474000000    -0.331000000     2.079000000
H     3.833000000     0.632000000     3.054000000
O    -3.845000000    -2.071000000    -3.683000000
H    -4.757000000    -1.782000000    -3.642000000
H    -3.715000000    -2.568000000    -2.875000000
O     6.184000000    -0.347000000    -1.077000000
H     6.466000000    -0.342000000    -1.992000000
H     5.242000000    -0.513000000    -1.119000000
O    -3.525000000    -3.405000000    -1.305000000
H    -4.247000000    -3.580000000    -0.701000000
H    -2.862000000    -4.058000000    -1.081000000
O     1.658000000    -6.828000000    -4.159000000
H     2.237000000    -7.587000000    -4.224000000
H     1.836000000    -6.465000000    -3.291000000
O     2.293000000    -1.489000000    -3.989000000
H     1.891000000    -2.309000000    -4.276000000
H     1.561000000    -0.878000000    -3.910000000
O     1.004000000    -6.231000000     0.526000000
H     1.478000000    -6.381000000    -0.292000000
H     1.303000000    -6.930000000     1.108000000
O     2.468000000     1.463000000    -2.153000000
H     2.413000000     2.303000000    -1.697000000
H     1.600000000     1.341000000    -2.538000000
O    -6.110000000    -0.396000000    -3.150000000
H    -6.559000000    -0.668000000    -2.350000000
H    -5.925000000     0.533000000    -3.016000000
O    -2.821000000     3.986000000     4.767000000
H    -3.118000000     3.150000000     5.128000000
H    -3.597000000     4.351000000     4.341000000
O     1.290000000    -4.430000000     2.912000000
H     2.234000000    -4.277000000     2.870000000
H     1.073000000    -4.820000000     2.065000000
O    -0.120000000     8.359000000     2.052000000
H    -0.480000000     7.475000000     1.973000000
H     0.739000000     8.232000000     2.455000000
O    -1.956000000     6.235000000     1.103000000
H    -1.781000000     5.296000000     1.041000000
H    -2.545000000     6.417000000     0.370000000
O     3.248000000    -6.236000000    -1.908000000
H     3.408000000    -5.403000000    -1.465000000
H     4.051000000    -6.402000000    -2.403000000
O    -1.612000000    -5.630000000    -0.382000000
H    -0.660000000    -5.735000000    -0.383000000
H    -1.859000000    -5.687000000     0.541000000
O     0.717000000     0.804000000    -4.356000000
H     1.373000000     1.084000000    -4.995000000
H    -0.114000000     0.853000000    -4.830000000
O     5.406000000    -1.896000000     1.758000000
H     6.053000000    -1.917000000     2.463000000
H     5.903000000    -1.627000000     0.985000000
O    -0.085000000    -3.727000000    -4.674000000
H    -0.501000000    -3.350000000    -5.449000000
H     0.687000000    -4.179000000    -5.013000000
O    -6.211000000     4.285000000    -1.327000000
H    -5.533000000     4.809000000    -1.754000000
H    -6.959000000     4.878000000    -1.251000000
O    -1.979000000     6.644000000    -3.236000000
H    -1.250000000     6.074000000    -2.991000000
H    -1.985000000     6.626000000    -4.193000000
O    -2.424000000     0.253000000     2.870000000
H    -1.678000000     0.326000000     3.467000000
H    -2.425000000    -0.665000000     2.600000000
O     1.432000000     4.952000000     0.767000000
H     0.697000000     4.358000000     0.916000000
H     2.056000000     4.740000000     1.461000000
O    -0.357000000     1.135000000     4.550000000
H    -0.280000000     1.139000000     5.504000000
H    -0.403000000     2.060000000     4.309000000
O    -1.379000000     2.454000000    -5.684000000
H    -1.904000000     2.600000000    -4.897000000
H    -0.539000000     2.871000000    -5.492000000
O     2.727000000     4.065000000    -1.429000000
H     2.795000000     4.783000000    -2.058000000
H     2.215000000     4.427000000    -0.706000000
O    -5.617000000     2.333000000    -3.264000000
H    -5.983000000     3.066000000    -2.770000000
H    -5.831000000     2.527000000    -4.176000000
O    -5.830000000     3.238000000     1.097000000
H    -5.091000000     2.631000000     1.076000000
H    -5.937000000     3.517000000     0.187000000
