144
-2823.48774
O     2.434000000     3.535000000     2.769000000
H     2.768000000     3.268000000     3.626000000
H     3.049000000     3.154000000     2.143000000
O    -2.423000000    -0.289000000     1.944000000
H    -1.606000000    -0.060000000     1.500000000
H    -2.534000000    -1.224000000     1.774000000
O     6.282000000    -0.681000000    -1.356000000
H     6.355000000    -1.398000000    -1.985000000
H     5.440000000    -0.272000000    -1.556000000
O    -6.508000000     4.099000000     1.406000000
H    -6.261000000     3.578000000     0.641000000
H    -6.109000000     4.955000000     1.252000000
O     2.640000000    -3.492000000     3.300000000
H     2.979000000    -3.144000000     2.475000000
H     2.393000000    -2.716000000     3.803000000
O     3.898000000     2.454000000     4.912000000
H     4.108000000     3.383000000     5.010000000
H     4.746000000     2.029000000     4.783000000
O     6.219000000    -3.051000000    -2.822000000
H     5.567000000    -2.554000000    -3.316000000
H     6.690000000    -3.555000000    -3.486000000
O    -4.922000000     3.036000000    -0.693000000
H    -4.469000000     3.698000000    -1.215000000
H    -4.221000000     2.482000000    -0.348000000
O    -2.600000000    -3.099000000     2.195000000
H    -2.099000000    -2.619000000     2.853000000
H    -2.189000000    -3.962000000     2.163000000
O    -0.794000000    -4.573000000    -3.718000000
H    -1.098000000    -3.798000000    -4.191000000
H     0.161000000    -4.499000000    -3.726000000
O    -0.880000000     3.353000000     3.663000000
H    -1.825000000     3.412000000     3.801000000
H    -0.763000000     3.521000000     2.728000000
O    -3.156000000     0.681000000    -5.298000000
H    -3.305000000     1.009000000    -4.412000000
H    -3.778000000     1.164000000    -5.841000000
O    -3.727000000     1.507000000    -2.841000000
H    -4.658000000     1.707000000    -2.747000000
H    -3.295000000     2.073000000    -2.202000000
O     2.786000000    -6.073000000     1.901000000
H     3.730000000    -6.020000000     1.750000000
H     2.545000000    -5.204000000     2.220000000
O     1.792000000    -1.074000000     4.626000000
H     1.954000000    -1.331000000     5.534000000
H     2.286000000    -0.263000000     4.514000000
O    -6.104000000    -1.630000000    -0.403000000
H    -5.413000000    -1.028000000    -0.125000000
H    -6.519000000    -1.191000000    -1.146000000
O     3.615000000     0.219000000    -1.291000000
H     3.013000000     0.220000000    -0.547000000
H     3.054000000     0.357000000    -2.054000000
O    -0.885000000    -1.902000000     3.779000000
H    -0.399000000    -2.725000000     3.813000000
H    -0.280000000    -1.251000000     4.135000000
O    -1.343000000     5.074000000    -2.877000000
H    -1.567000000     4.377000000    -2.261000000
H    -0.919000000     5.743000000    -2.340000000
O     0.769000000    -1.817000000    -4.622000000
H     1.076000000    -2.473000000    -3.996000000
H    -0.178000000    -1.950000000    -4.663000000
O    -5.201000000     6.776000000     1.739000000
H    -4.481000000     6.361000000     1.264000000
H    -4.816000000     7.042000000     2.574000000
O     4.956000000     0.212000000     3.309000000
H     4.498000000    -0.396000000     2.728000000
H     5.447000000    -0.353000000     3.906000000
O    -3.766000000    -2.027000000    -2.985000000
H    -3.996000000    -1.213000000    -2.537000000
H    -3.399000000    -2.583000000    -2.298000000
O     4.787000000     2.690000000     1.618000000
H     4.320000000     1.907000000     1.908000000
H     5.402000000     2.371000000     0.958000000
O    -2.307000000    -4.348000000    -1.035000000
H    -2.617000000    -5.054000000    -0.467000000
H    -1.371000000    -4.519000000    -1.139000000
O     2.183000000    -3.830000000    -3.317000000
H     2.723000000    -4.423000000    -3.838000000
H     2.642000000    -3.761000000    -2.479000000
O     1.668000000     0.671000000    -3.250000000
H     1.575000000    -0.261000000    -3.447000000
H     0.776000000     1.015000000    -3.289000000
O     0.196000000    -5.858000000    -0.665000000
H    -0.403000000    -5.951000000    -1.405000000
H     1.063000000    -6.024000000    -1.035000000
O     3.225000000     3.991000000    -1.068000000
H     3.634000000     3.837000000    -0.217000000
H     2.292000000     4.076000000    -0.874000000
O     5.532000000    -5.135000000     1.325000000
H     6.267000000    -4.583000000     1.059000000
H     5.906000000    -6.014000000     1.394000000
O    -3.544000000     3.606000000     2.672000000
H    -3.902000000     4.188000000     3.343000000
H    -3.518000000     4.142000000     1.879000000
O     2.012000000    -7.989000000     0.231000000
H     2.638000000    -7.824000000    -0.474000000
H     2.196000000    -7.310000000     0.879000000
O     0.237000000    -4.559000000     4.102000000
H     1.116000000    -4.627000000     3.729000000
H    -0.340000000    -4.905000000     3.421000000
O    -0.336000000     5.361000000     5.476000000
H     0.301000000     4.826000000     5.950000000
H    -0.613000000     4.812000000     4.744000000
O    -2.963000000     5.518000000     0.262000000
H    -2.307000000     4.931000000     0.639000000
H    -3.001000000     5.271000000    -0.663000000
O     4.032000000    -4.111000000    -1.375000000
H     4.147000000    -4.196000000    -0.429000000
H     4.893000000    -3.845000000    -1.698000000
O    -0.859000000    -5.396000000     1.888000000
H    -0.191000000    -5.542000000     1.218000000
H    -1.601000000    -5.930000000     1.605000000
O    -0.184000000     2.988000000    -4.246000000
H    -0.606000000     3.748000000    -3.847000000
H    -0.424000000     3.038000000    -5.171000000
O     4.508000000    -1.743000000     1.127000000
H     5.283000000    -2.186000000     1.473000000
H     4.812000000    -1.321000000     0.324000000
O     4.240000000    -1.452000000    -4.079000000
H     3.470000000    -2.021000000    -4.096000000
H     4.161000000    -0.919000000    -4.870000000
O    -1.796000000    -2.197000000    -4.854000000
H    -2.175000000    -2.313000000    -5.725000000
H    -2.533000000    -1.926000000    -4.307000000
O    -7.042000000     4.250000000    -2.819000000
H    -6.137000000     4.295000000    -2.512000000
H    -7.414000000     5.103000000    -2.593000000
O    -4.419000000     5.370000000    -2.185000000
H    -3.835000000     5.658000000    -2.886000000
H    -4.886000000     6.163000000    -1.921000000
O    -4.652000000     1.043000000     2.236000000
H    -4.292000000     1.919000000     2.377000000
H    -3.907000000     0.524000000     1.932000000
O     0.711000000     5.659000000     1.935000000
H     0.078000000     5.064000000     1.534000000
H     1.404000000     5.085000000     2.263000000
O    -1.555000000     0.805000000     4.564000000
H    -1.893000000     0.315000000     3.815000000
H    -0.979000000     1.465000000     4.179000000
O    -2.664000000     5.784000000    -5.224000000
H    -2.179000000     5.624000000    -4.415000000
H    -2.316000000     6.614000000    -5.552000000
O    -0.706000000     7.011000000    -0.408000000
H    -1.645000000     6.905000000    -0.253000000
H    -0.303000000     6.851000000     0.446000000
