144
-2812.77060
O    -3.243000000    -3.774000000     5.876000000
H    -3.064000000    -3.868000000     4.941000000
H    -4.198000000    -3.803000000     5.941000000
O     5.457000000    -1.035000000     1.517000000
H     5.664000000    -0.269000000     0.980000000
H     4.660000000    -0.790000000     1.987000000
O     4.219000000    -3.146000000     0.220000000
H     3.973000000    -3.700000000     0.960000000
H     5.170000000    -3.063000000     0.290000000
O    -1.461000000     6.333000000     2.508000000
H    -2.073000000     6.613000000     3.189000000
H    -1.766000000     5.462000000     2.254000000
O    -1.117000000    -1.762000000     4.843000000
H    -1.905000000    -2.203000000     5.158000000
H    -0.410000000    -2.122000000     5.379000000
O     2.299000000    -4.051000000    -1.588000000
H     2.554000000    -3.561000000    -0.805000000
H     3.069000000    -4.014000000    -2.154000000
O    -1.808000000     3.770000000     1.757000000
H    -1.403000000     3.049000000     2.238000000
H    -1.243000000     3.896000000     0.994000000
O     3.126000000     1.359000000    -5.728000000
H     2.636000000     1.970000000    -6.279000000
H     2.492000000     1.067000000    -5.073000000
O    -1.760000000    -4.278000000     3.192000000
H    -1.174000000    -3.874000000     3.832000000
H    -1.180000000    -4.789000000     2.627000000
O     1.960000000     3.579000000    -6.940000000
H     1.357000000     3.726000000    -6.211000000
H     1.640000000     4.154000000    -7.635000000
O    -0.145000000     3.773000000    -5.003000000
H    -0.574000000     4.623000000    -4.903000000
H    -0.059000000     3.441000000    -4.109000000
O     6.225000000     1.511000000     0.495000000
H     5.765000000     2.320000000     0.716000000
H     6.544000000     1.652000000    -0.396000000
O     0.518000000    -6.276000000     3.217000000
H     1.238000000    -6.790000000     3.581000000
H    -0.255000000    -6.828000000     3.335000000
O    -2.311000000    -4.459000000    -0.714000000
H    -1.681000000    -4.448000000    -1.435000000
H    -1.893000000    -4.995000000    -0.040000000
O    -2.333000000     5.721000000    -1.957000000
H    -1.802000000     4.929000000    -1.875000000
H    -2.626000000     5.720000000    -2.867000000
O    -3.243000000     2.525000000    -3.171000000
H    -2.309000000     2.703000000    -3.061000000
H    -3.610000000     2.621000000    -2.292000000
O    -4.955000000     6.650000000    -0.943000000
H    -4.098000000     6.354000000    -1.253000000
H    -4.755000000     7.333000000    -0.303000000
O    -1.422000000     0.911000000     3.501000000
H    -1.266000000     0.086000000     3.960000000
H    -0.721000000     1.489000000     3.801000000
O     4.282000000     4.371000000    -1.410000000
H     4.504000000     5.265000000    -1.147000000
H     3.464000000     4.462000000    -1.900000000
O     1.586000000    -2.819000000    -5.457000000
H     1.547000000    -2.487000000    -4.560000000
H     1.044000000    -2.212000000    -5.961000000
O     1.223000000     1.178000000    -3.454000000
H     1.937000000     1.605000000    -2.980000000
H     0.430000000     1.593000000    -3.115000000
O    -0.840000000    -6.143000000     0.892000000
H    -0.005000000    -5.926000000     1.306000000
H    -0.818000000    -7.095000000     0.794000000
O    -3.135000000     2.436000000    -6.714000000
H    -3.276000000     1.957000000    -7.531000000
H    -3.409000000     1.826000000    -6.029000000
O     0.765000000     7.511000000     1.270000000
H     0.190000000     7.484000000     2.035000000
H     0.488000000     8.290000000     0.789000000
O     5.031000000     3.779000000     1.627000000
H     4.603000000     4.233000000     0.901000000
H     5.893000000     4.190000000     1.692000000
O    -5.103000000     0.327000000    -3.993000000
H    -5.993000000     0.361000000    -4.343000000
H    -5.099000000     0.970000000    -3.284000000
O    -4.147000000     3.355000000    -0.187000000
H    -4.288000000     3.564000000     0.736000000
H    -3.312000000     3.773000000    -0.402000000
O     0.358000000    -4.814000000    -3.774000000
H     0.588000000    -4.156000000    -4.430000000
H     1.074000000    -4.780000000    -3.140000000
O     3.467000000    -0.726000000     3.182000000
H     3.155000000    -1.288000000     3.892000000
H     3.358000000     0.164000000     3.516000000
O     3.103000000    -4.622000000     2.388000000
H     2.595000000    -5.153000000     1.774000000
H     2.833000000    -4.931000000     3.253000000
O     3.323000000    -0.909000000    -0.494000000
H     2.452000000    -0.788000000    -0.116000000
H     3.617000000    -1.754000000    -0.153000000
O    -2.444000000    -0.430000000    -4.668000000
H    -3.264000000     0.005000000    -4.433000000
H    -2.700000000    -1.330000000    -4.871000000
O    -3.142000000     0.522000000     1.567000000
H    -2.671000000     0.687000000     2.383000000
H    -2.558000000     0.848000000     0.882000000
O    -3.900000000    -3.514000000     1.532000000
H    -3.482000000    -3.328000000     0.691000000
H    -3.176000000    -3.752000000     2.112000000
O     2.334000000    -1.916000000     5.979000000
H     1.537000000    -2.264000000     6.379000000
H     2.386000000    -1.014000000     6.294000000
O    -0.139000000    -0.741000000    -6.370000000
H     0.346000000     0.082000000    -6.430000000
H    -0.889000000    -0.537000000    -5.811000000
O     2.598000000     0.716000000     6.895000000
H     2.970000000     1.562000000     6.647000000
H     1.708000000     0.734000000     6.541000000
O     1.746000000    -6.034000000     0.175000000
H     1.955000000    -6.927000000    -0.099000000
H     1.726000000    -5.532000000    -0.640000000
O    -1.115000000     6.558000000    -5.211000000
H    -1.854000000     7.086000000    -4.911000000
H    -0.343000000     7.012000000    -4.872000000
O     2.965000000     7.233000000    -1.575000000
H     3.899000000     7.084000000    -1.429000000
H     2.532000000     6.524000000    -1.099000000
O     0.940000000     2.339000000     4.199000000
H     1.880000000     2.165000000     4.255000000
H     0.822000000     3.169000000     4.661000000
O     1.702000000    -1.403000000    -2.854000000
H     1.767000000    -1.776000000    -1.975000000
H     1.338000000    -0.528000000    -2.717000000
O     3.599000000     1.977000000     4.064000000
H     4.040000000     2.248000000     3.259000000
H     4.194000000     2.242000000     4.764000000
O     4.405000000    -0.361000000    -3.012000000
H     3.492000000    -0.649000000    -3.014000000
H     4.603000000    -0.195000000    -2.091000000
O     2.460000000     4.195000000    -3.372000000
H     3.134000000     4.351000000    -4.033000000
H     1.766000000     4.819000000    -3.586000000
O     1.796000000     5.223000000     0.078000000
H     1.229000000     5.807000000     0.582000000
H     1.303000000     4.405000000     0.014000000
O    -1.577000000     7.762000000    -0.295000000
H    -1.045000000     7.430000000     0.429000000
H    -1.654000000     7.020000000    -0.895000000
O     3.515000000     5.392000000     3.256000000
H     3.043000000     6.187000000     3.008000000
H     3.475000000     4.837000000     2.477000000
