144
-2767.31746
O    -3.576000000    -5.156000000     2.565000000
H    -3.145000000    -4.330000000     2.344000000
H    -2.885000000    -5.814000000     2.485000000
O    -4.741000000    -5.015000000    -2.243000000
H    -5.068000000    -4.122000000    -2.127000000
H    -4.205000000    -4.972000000    -3.035000000
O     2.956000000    -0.851000000     7.447000000
H     3.420000000    -1.589000000     7.051000000
H     2.282000000    -0.622000000     6.807000000
O    -1.873000000     2.478000000    -2.353000000
H    -2.187000000     1.764000000    -1.798000000
H    -2.097000000     3.273000000    -1.870000000
O     4.393000000     1.479000000     5.212000000
H     5.069000000     1.923000000     5.723000000
H     4.675000000     0.565000000     5.183000000
O    -5.458000000     0.427000000     3.908000000
H    -4.607000000     0.569000000     3.493000000
H    -5.311000000     0.635000000     4.831000000
O     1.838000000     2.262000000    -4.152000000
H     2.457000000     1.594000000    -4.448000000
H     2.110000000     2.460000000    -3.256000000
O    -1.593000000    -3.164000000     3.994000000
H    -2.357000000    -2.747000000     3.597000000
H    -1.800000000    -3.203000000     4.928000000
O     3.644000000     6.023000000     0.328000000
H     3.836000000     5.228000000    -0.170000000
H     3.217000000     5.708000000     1.126000000
O     2.412000000     2.428000000     4.049000000
H     3.054000000     1.879000000     4.499000000
H     1.624000000     1.887000000     4.005000000
O    -1.102000000    -6.545000000    -2.814000000
H    -1.768000000    -6.934000000    -3.381000000
H    -0.953000000    -5.674000000    -3.182000000
O     0.787000000    -6.012000000     0.811000000
H     0.055000000    -6.080000000     1.423000000
H     0.391000000    -5.700000000    -0.003000000
O    -3.183000000     2.931000000     5.922000000
H    -3.356000000     3.534000000     6.644000000
H    -3.807000000     2.217000000     6.051000000
O     4.873000000    -2.042000000    -3.186000000
H     4.567000000    -1.471000000    -2.481000000
H     5.447000000    -2.673000000    -2.751000000
O     0.566000000     5.315000000     6.322000000
H    -0.061000000     4.914000000     5.720000000
H     1.396000000     4.880000000     6.128000000
O     5.739000000    -0.091000000     2.176000000
H     6.543000000    -0.531000000     2.453000000
H     5.035000000    -0.617000000     2.555000000
O    -1.628000000    -3.309000000     7.035000000
H    -1.352000000    -3.303000000     7.951000000
H    -1.995000000    -2.437000000     6.889000000
O     1.381000000     3.878000000    -1.229000000
H     0.446000000     3.676000000    -1.263000000
H     1.613000000     3.782000000    -0.305000000
O     0.754000000    -4.484000000    -4.135000000
H     1.420000000    -3.802000000    -4.224000000
H     0.158000000    -4.333000000    -4.869000000
O    -3.434000000    -1.667000000     2.571000000
H    -2.965000000    -0.834000000     2.612000000
H    -4.171000000    -1.498000000     1.983000000
O     2.020000000    -2.230000000     1.295000000
H     2.113000000    -2.969000000     0.693000000
H     1.095000000    -1.990000000     1.239000000
O    -6.065000000     1.152000000     1.237000000
H    -6.137000000     0.467000000     0.572000000
H    -6.031000000     0.676000000     2.067000000
O    -2.992000000    -4.435000000    -4.418000000
H    -2.230000000    -4.468000000    -4.995000000
H    -3.682000000    -4.044000000    -4.954000000
O    -5.666000000    -1.606000000     0.894000000
H    -6.394000000    -1.421000000     0.300000000
H    -5.841000000    -2.489000000     1.220000000
O    -6.089000000    -2.260000000    -2.426000000
H    -6.053000000    -1.374000000    -2.067000000
H    -5.566000000    -2.215000000    -3.227000000
O     3.828000000     0.733000000    -5.154000000
H     4.302000000     0.105000000    -5.698000000
H     3.324000000     1.257000000    -5.776000000
O    -3.144000000     3.056000000     2.115000000
H    -2.953000000     2.463000000     2.842000000
H    -3.804000000     3.656000000     2.463000000
O     0.654000000    -0.204000000     5.954000000
H    -0.277000000    -0.306000000     6.150000000
H     0.678000000     0.389000000     5.203000000
O    -4.569000000    -1.528000000    -4.559000000
H    -4.150000000    -1.819000000    -5.369000000
H    -4.426000000    -0.581000000    -4.542000000
O     2.641000000     4.694000000     2.411000000
H     1.817000000     5.066000000     2.725000000
H     2.574000000     3.760000000     2.612000000
O    -5.199000000    -2.817000000     5.428000000
H    -5.493000000    -1.907000000     5.377000000
H    -5.550000000    -3.227000000     4.637000000
O    -0.990000000     3.821000000     4.423000000
H    -0.574000000     2.969000000     4.296000000
H    -1.738000000     3.640000000     4.992000000
O     5.560000000     3.092000000     2.850000000
H     5.236000000     3.389000000     3.701000000
H     5.460000000     2.141000000     2.874000000
O    -0.630000000    -0.836000000    -5.805000000
H    -0.305000000    -0.881000000    -4.905000000
H     0.107000000    -1.131000000    -6.340000000
O     3.806000000    -1.518000000     3.847000000
H     2.953000000    -1.535000000     3.412000000
H     4.079000000    -2.435000000     3.874000000
O    -0.491000000     3.724000000    -4.318000000
H    -1.034000000     3.223000000    -3.710000000
H     0.354000000     3.275000000    -4.312000000
O     4.237000000     3.658000000    -1.288000000
H     3.287000000     3.546000000    -1.296000000
H     4.460000000     3.878000000    -2.192000000
O     2.769000000    -2.821000000    -4.776000000
H     2.527000000    -2.088000000    -5.342000000
H     3.478000000    -2.479000000    -4.231000000
O    -0.096000000     5.855000000     2.864000000
H    -0.476000000     5.106000000     3.323000000
H    -0.664000000     5.983000000     2.104000000
O     2.503000000    -6.590000000    -3.410000000
H     2.388000000    -7.297000000    -2.774000000
H     1.778000000    -5.990000000    -3.235000000
O    -2.814000000    -0.275000000    -7.254000000
H    -2.044000000    -0.463000000    -6.718000000
H    -3.002000000     0.649000000    -7.087000000
O     4.152000000    -1.117000000    -0.600000000
H     3.754000000    -1.315000000     0.248000000
H     4.329000000    -0.177000000    -0.567000000
O    -2.428000000    -0.924000000     5.989000000
H    -2.367000000    -0.963000000     5.034000000
H    -2.536000000     0.007000000     6.185000000
O     7.207000000    -1.162000000    -1.009000000
H     6.334000000    -1.084000000    -0.626000000
H     7.087000000    -0.929000000    -1.930000000
O    -4.206000000     1.913000000    -0.619000000
H    -4.946000000     1.552000000    -0.130000000
H    -3.736000000     2.451000000     0.018000000
O     5.988000000     0.813000000    -3.071000000
H     5.935000000     1.700000000    -3.425000000
H     5.335000000     0.318000000    -3.566000000
O    -2.044000000     5.405000000     1.019000000
H    -2.166000000     4.524000000     1.372000000
H    -2.290000000     5.331000000     0.097000000
O     5.475000000     1.193000000    -0.199000000
H     5.717000000     1.110000000     0.724000000
H     5.546000000     2.130000000    -0.381000000
