144
-2798.39141
O     1.329000000    -0.411000000     5.305000000
H     0.955000000     0.145000000     4.621000000
H     1.385000000    -1.278000000     4.905000000
O     1.066000000    -5.394000000     1.255000000
H     1.902000000    -5.790000000     1.500000000
H     0.513000000    -5.503000000     2.029000000
O     1.046000000    -2.691000000     3.807000000
H     0.358000000    -3.123000000     3.302000000
H     1.679000000    -2.400000000     3.150000000
O     2.706000000    -5.128000000    -5.797000000
H     3.013000000    -6.011000000    -5.591000000
H     1.796000000    -5.116000000    -5.500000000
O    -2.391000000     3.952000000    -2.059000000
H    -2.171000000     4.017000000    -1.129000000
H    -3.162000000     3.385000000    -2.083000000
O    -0.127000000    -3.800000000    -6.434000000
H    -0.657000000    -4.596000000    -6.477000000
H    -0.301000000    -3.352000000    -7.262000000
O     4.005000000     3.499000000    -1.143000000
H     4.004000000     2.908000000    -1.896000000
H     4.240000000     2.942000000    -0.402000000
O     0.720000000     4.398000000     2.078000000
H     0.206000000     5.204000000     2.026000000
H     0.110000000     3.747000000     2.424000000
O    -4.669000000     5.401000000     1.875000000
H    -4.642000000     5.260000000     2.821000000
H    -5.571000000     5.667000000     1.698000000
O    -2.390000000    -3.643000000     0.560000000
H    -1.733000000    -4.121000000     0.054000000
H    -2.315000000    -2.738000000     0.256000000
O    -4.120000000     0.623000000     5.989000000
H    -4.061000000     1.222000000     5.244000000
H    -3.490000000    -0.069000000     5.790000000
O     4.059000000     1.676000000    -3.286000000
H     3.375000000     1.901000000    -3.917000000
H     4.751000000     1.278000000    -3.815000000
O    -0.075000000     6.229000000    -1.084000000
H    -0.996000000     6.259000000    -1.346000000
H    -0.099000000     6.023000000    -0.149000000
O    -2.219000000     0.562000000    -3.124000000
H    -2.432000000    -0.308000000    -3.461000000
H    -1.340000000     0.468000000    -2.757000000
O     3.098000000    -6.008000000    -1.263000000
H     2.523000000    -6.442000000    -1.894000000
H     2.902000000    -5.076000000    -1.362000000
O    -1.102000000    -4.210000000     3.024000000
H    -1.559000000    -4.537000000     3.798000000
H    -1.797000000    -4.035000000     2.391000000
O    -2.174000000     4.709000000     0.807000000
H    -3.094000000     4.809000000     1.052000000
H    -1.861000000     3.982000000     1.344000000
O     5.921000000    -0.132000000    -4.461000000
H     5.037000000    -0.474000000    -4.326000000
H     6.437000000    -0.896000000    -4.719000000
O     0.453000000    -1.107000000    -5.828000000
H     1.376000000    -1.008000000    -6.064000000
H     0.166000000    -1.886000000    -6.304000000
O     0.343000000     6.906000000     4.317000000
H    -0.180000000     7.556000000     4.786000000
H    -0.037000000     6.065000000     4.569000000
O     4.872000000    -3.222000000    -0.714000000
H     5.033000000    -3.545000000     0.173000000
H     4.332000000    -2.442000000    -0.590000000
O    -1.767000000    -1.378000000     4.450000000
H    -1.323000000    -0.553000000     4.251000000
H    -2.412000000    -1.477000000     3.750000000
O     2.341000000     5.893000000    -2.435000000
H     2.658000000     5.061000000    -2.084000000
H     1.531000000     6.063000000    -1.954000000
O    -4.420000000     4.745000000     4.657000000
H    -5.234000000     5.240000000     4.745000000
H    -3.919000000     4.966000000     5.442000000
O    -1.165000000    -2.088000000     6.946000000
H    -0.759000000    -1.335000000     7.375000000
H    -1.316000000    -1.799000000     6.046000000
O    -1.281000000    -4.317000000    -3.124000000
H    -0.956000000    -4.733000000    -2.326000000
H    -1.583000000    -5.045000000    -3.667000000
O    -3.813000000    -0.465000000     2.021000000
H    -3.826000000     0.381000000     2.469000000
H    -4.077000000    -1.095000000     2.692000000
O     0.240000000     0.010000000     7.730000000
H     0.911000000    -0.326000000     7.136000000
H    -0.187000000     0.711000000     7.237000000
O    -2.777000000     4.717000000    -4.633000000
H    -3.638000000     4.401000000    -4.905000000
H    -2.545000000     4.169000000    -3.884000000
O     3.974000000    -2.215000000    -4.565000000
H     3.763000000    -2.758000000    -3.805000000
H     3.763000000    -2.767000000    -5.318000000
O     1.434000000     1.447000000    -4.874000000
H     0.725000000     2.049000000    -4.645000000
H     1.014000000     0.587000000    -4.914000000
O    -3.898000000     2.111000000     3.569000000
H    -3.037000000     2.427000000     3.297000000
H    -4.385000000     2.904000000     3.791000000
O    -0.018000000     7.006000000     1.443000000
H    -0.116000000     7.340000000     2.335000000
H    -0.916000000     6.909000000     1.125000000
O    -4.836000000     0.725000000    -3.237000000
H    -3.895000000     0.574000000    -3.142000000
H    -4.965000000     1.625000000    -2.940000000
O     2.871000000    -1.425000000     1.880000000
H     3.761000000    -1.268000000     2.194000000
H     2.648000000    -0.636000000     1.386000000
O    -3.038000000    -2.153000000    -3.096000000
H    -3.307000000    -2.304000000    -2.190000000
H    -2.504000000    -2.916000000    -3.317000000
O     3.288000000     3.658000000     1.621000000
H     3.787000000     4.263000000     1.072000000
H     2.379000000     3.941000000     1.524000000
O     2.352000000     5.195000000     4.289000000
H     2.018000000     6.091000000     4.312000000
H     1.937000000     4.804000000     3.519000000
O    -2.912000000     6.584000000    -1.682000000
H    -3.010000000     7.089000000    -2.490000000
H    -2.889000000     5.672000000    -1.971000000
O     2.436000000     4.024000000    -5.025000000
H     1.768000000     4.689000000    -5.193000000
H     2.071000000     3.492000000    -4.318000000
O     4.753000000    -0.092000000    -1.307000000
H     4.317000000     0.443000000    -1.970000000
H     4.230000000     0.032000000    -0.516000000
O    -1.024000000     4.382000000     4.360000000
H    -1.315000000     3.621000000     3.858000000
H    -1.820000000     4.712000000     4.777000000
O    -0.564000000    -5.967000000    -0.847000000
H    -0.038000000    -6.647000000    -1.268000000
H    -0.056000000    -5.714000000    -0.076000000
O    -3.623000000    -1.163000000    -0.537000000
H    -3.569000000    -1.036000000     0.410000000
H    -3.654000000    -0.276000000    -0.896000000
O    -0.737000000     3.267000000    -6.270000000
H    -1.355000000     3.118000000    -5.555000000
H    -1.160000000     3.927000000    -6.819000000
O     0.020000000     3.760000000    -3.532000000
H    -0.701000000     3.966000000    -2.937000000
H     0.049000000     4.499000000    -4.139000000
O     3.045000000     0.881000000     0.576000000
H     2.216000000     0.933000000     0.100000000
H     3.129000000     1.731000000     1.007000000
O    -1.057000000     1.859000000     6.296000000
H    -0.830000000     1.648000000     5.391000000
H    -0.518000000     2.621000000     6.507000000
