144
-2830.75299
O    -0.539000000    -0.982000000     4.453000000
H    -0.972000000    -0.250000000     4.016000000
H    -0.760000000    -1.746000000     3.920000000
O    -3.978000000    -3.104000000    -1.156000000
H    -4.614000000    -2.826000000    -1.815000000
H    -3.260000000    -3.484000000    -1.661000000
O    -6.925000000    -1.572000000     1.922000000
H    -6.027000000    -1.364000000     1.666000000
H    -6.880000000    -1.707000000     2.868000000
O    -1.119000000    -3.303000000     3.533000000
H    -2.012000000    -3.577000000     3.739000000
H    -0.598000000    -4.102000000     3.614000000
O     2.363000000    -3.665000000    -3.990000000
H     1.819000000    -3.915000000    -3.243000000
H     2.850000000    -4.459000000    -4.208000000
O    -2.425000000     6.696000000     0.017000000
H    -2.553000000     7.092000000     0.880000000
H    -3.037000000     5.961000000    -0.002000000
O     0.999000000    -6.320000000    -4.505000000
H     0.504000000    -5.804000000    -3.869000000
H     0.408000000    -6.411000000    -5.252000000
O    -1.834000000     0.837000000    -4.887000000
H    -2.776000000     0.994000000    -4.831000000
H    -1.472000000     1.667000000    -5.197000000
O     4.650000000     3.205000000     0.312000000
H     5.477000000     3.676000000     0.203000000
H     4.264000000     3.194000000    -0.564000000
O     1.509000000     4.186000000     2.799000000
H     1.053000000     4.964000000     3.121000000
H     0.813000000     3.547000000     2.645000000
O    -4.602000000     4.397000000     3.030000000
H    -3.837000000     4.737000000     3.495000000
H    -5.289000000     5.042000000     3.197000000
O    -1.485000000    -3.804000000    -2.335000000
H    -1.480000000    -3.125000000    -3.009000000
H    -0.687000000    -3.648000000    -1.830000000
O    -3.233000000     1.522000000     5.443000000
H    -2.591000000     1.441000000     4.738000000
H    -3.947000000     2.030000000     5.059000000
O    -3.457000000     2.193000000    -0.870000000
H    -3.814000000     3.013000000    -0.527000000
H    -2.672000000     2.457000000    -1.350000000
O     1.134000000    -5.183000000    -1.727000000
H     1.601000000    -4.870000000    -0.952000000
H     0.948000000    -6.103000000    -1.540000000
O     2.434000000    -0.468000000     2.468000000
H     2.649000000     0.455000000     2.336000000
H     1.665000000    -0.616000000     1.918000000
O    -4.290000000    -0.214000000    -3.794000000
H    -5.219000000    -0.321000000    -3.999000000
H    -4.265000000    -0.122000000    -2.841000000
O    -4.488000000    -3.815000000     1.467000000
H    -4.288000000    -2.955000000     1.836000000
H    -4.278000000    -3.731000000     0.537000000
O    -3.434000000    -4.468000000     4.103000000
H    -4.214000000    -4.148000000     3.650000000
H    -3.718000000    -4.600000000     5.007000000
O     1.281000000    -2.984000000    -6.717000000
H     1.611000000    -2.743000000    -5.851000000
H     1.991000000    -3.491000000    -7.111000000
O     2.978000000     6.416000000     1.046000000
H     2.495000000     7.153000000     1.421000000
H     3.084000000     5.803000000     1.773000000
O     4.117000000    -1.878000000     0.514000000
H     3.666000000    -1.239000000     1.067000000
H     4.700000000    -1.352000000    -0.033000000
O     1.390000000     5.511000000    -1.436000000
H     1.925000000     5.500000000    -0.642000000
H     0.701000000     4.868000000    -1.269000000
O     3.817000000     2.880000000    -2.512000000
H     4.204000000     2.347000000    -3.207000000
H     3.533000000     3.680000000    -2.955000000
O    -5.957000000     3.105000000     5.086000000
H    -6.888000000     3.083000000     4.868000000
H    -5.527000000     3.374000000     4.274000000
O    -1.473000000    -2.518000000    -6.882000000
H    -0.592000000    -2.884000000    -6.965000000
H    -1.582000000    -2.367000000    -5.943000000
O    -4.381000000    -1.400000000     2.674000000
H    -4.799000000    -1.618000000     3.508000000
H    -4.197000000    -0.463000000     2.737000000
O    -0.046000000     4.814000000     5.888000000
H    -0.899000000     4.687000000     6.303000000
H     0.376000000     3.956000000     5.940000000
O    -1.760000000    -0.536000000     6.941000000
H    -2.248000000     0.208000000     6.587000000
H    -1.202000000    -0.822000000     6.218000000
O     3.695000000    -4.317000000     1.879000000
H     4.492000000    -4.243000000     2.403000000
H     3.634000000    -3.481000000     1.416000000
O     3.769000000    -1.208000000    -4.885000000
H     3.247000000    -0.432000000    -4.683000000
H     3.262000000    -1.937000000    -4.526000000
O     1.207000000     0.659000000    -4.759000000
H     0.345000000     0.748000000    -4.352000000
H     1.193000000     1.278000000    -5.488000000
O    -2.070000000     3.432000000     7.266000000
H    -2.484000000     3.028000000     6.503000000
H    -2.744000000     4.009000000     7.626000000
O    -4.373000000     1.707000000     2.383000000
H    -3.427000000     1.565000000     2.355000000
H    -4.470000000     2.648000000     2.531000000
O    -6.496000000     2.018000000     0.490000000
H    -6.102000000     1.823000000    -0.360000000
H    -5.874000000     1.667000000     1.128000000
O    -1.027000000     2.711000000    -1.926000000
H    -0.960000000     3.346000000    -1.213000000
H    -0.694000000     1.895000000    -1.551000000
O    -2.017000000    -1.755000000    -4.097000000
H    -2.967000000    -1.635000000    -4.090000000
H    -1.670000000    -0.896000000    -4.340000000
O     3.159000000     2.036000000     2.300000000
H     3.701000000     2.520000000     1.676000000
H     2.563000000     2.694000000     2.659000000
O     1.758000000     2.594000000     6.302000000
H     2.483000000     2.540000000     5.678000000
H     1.486000000     1.685000000     6.430000000
O     5.722000000    -0.420000000    -3.015000000
H     5.068000000    -0.798000000    -3.603000000
H     6.473000000    -1.011000000    -3.080000000
O    -0.768000000     4.233000000     0.153000000
H    -0.756000000     3.875000000     1.041000000
H    -0.977000000     5.159000000     0.271000000
O    -4.726000000    -0.352000000    -0.915000000
H    -4.256000000    -0.671000000    -0.144000000
H    -4.415000000     0.546000000    -1.030000000
O     5.422000000     0.946000000     3.767000000
H     4.691000000     0.975000000     3.151000000
H     5.011000000     1.013000000     4.629000000
O    -2.154000000    -6.317000000    -1.145000000
H    -1.915000000    -5.475000000    -1.532000000
H    -1.980000000    -6.957000000    -1.835000000
O     5.584000000     0.325000000    -0.228000000
H     5.788000000     0.157000000    -1.148000000
H     5.142000000     1.174000000    -0.232000000
O    -2.253000000     4.089000000     4.230000000
H    -1.792000000     3.452000000     3.684000000
H    -1.563000000     4.660000000     4.567000000
O    -1.010000000     7.204000000     5.016000000
H    -0.746000000     6.353000000     5.366000000
H    -0.385000000     7.822000000     5.394000000
O    -1.547000000    -6.254000000     1.573000000
H    -2.064000000    -5.531000000     1.928000000
H    -2.003000000    -6.503000000     0.770000000
