144
-2801.34594
O    -1.667000000    -0.520000000     5.226000000
H    -1.567000000     0.078000000     4.485000000
H    -1.716000000    -1.389000000     4.827000000
O    -1.573000000    -5.656000000    -0.630000000
H    -1.570000000    -5.350000000     0.277000000
H    -1.764000000    -4.873000000    -1.146000000
O    -6.779000000     0.084000000     4.117000000
H    -5.877000000     0.134000000     3.798000000
H    -6.808000000    -0.726000000     4.626000000
O    -1.024000000    -3.077000000     3.529000000
H    -1.438000000    -3.706000000     2.938000000
H    -0.355000000    -3.584000000     3.988000000
O     5.853000000    -0.113000000     0.419000000
H     5.317000000    -0.427000000     1.147000000
H     5.229000000     0.038000000    -0.291000000
O     1.980000000    -4.992000000    -3.979000000
H     1.389000000    -4.902000000    -3.231000000
H     2.708000000    -5.516000000    -3.647000000
O    -1.750000000    -0.069000000    -5.250000000
H    -2.003000000     0.131000000    -4.349000000
H    -2.464000000     0.280000000    -5.783000000
O     4.742000000     2.549000000     0.909000000
H     5.154000000     3.399000000     1.063000000
H     4.592000000     2.523000000    -0.036000000
O     1.320000000     2.949000000     3.963000000
H     1.447000000     3.868000000     3.726000000
H     0.448000000     2.734000000     3.632000000
O    -5.071000000     3.374000000     3.550000000
H    -4.778000000     3.574000000     4.439000000
H    -5.876000000     3.879000000     3.444000000
O    -2.215000000    -3.254000000    -1.604000000
H    -2.957000000    -3.238000000    -2.208000000
H    -1.856000000    -2.368000000    -1.641000000
O    -4.299000000     1.396000000     7.141000000
H    -3.442000000     1.377000000     6.715000000
H    -4.859000000     1.876000000     6.530000000
O     1.895000000     1.831000000    -5.823000000
H     1.132000000     1.520000000    -6.311000000
H     1.770000000     2.778000000    -5.763000000
O     4.807000000    -5.566000000    -3.689000000
H     5.227000000    -4.922000000    -3.118000000
H     5.385000000    -5.625000000    -4.450000000
O    -2.601000000     2.427000000    -1.587000000
H    -2.962000000     2.758000000    -0.764000000
H    -1.700000000     2.752000000    -1.600000000
O     1.329000000    -5.096000000    -0.642000000
H     0.434000000    -5.432000000    -0.591000000
H     1.487000000    -4.703000000     0.217000000
O     2.237000000    -1.584000000     2.693000000
H     2.677000000    -0.735000000     2.688000000
H     1.396000000    -1.421000000     2.265000000
O    -2.596000000    -4.929000000     2.094000000
H    -2.685000000    -5.738000000     2.599000000
H    -3.449000000    -4.814000000     1.675000000
O    -3.170000000     3.269000000     1.102000000
H    -3.854000000     3.493000000     1.733000000
H    -2.394000000     3.107000000     1.638000000
O     6.540000000    -0.703000000    -3.095000000
H     5.597000000    -0.868000000    -3.074000000
H     6.926000000    -1.462000000    -2.658000000
O     0.308000000    -3.715000000    -5.784000000
H     0.851000000    -4.103000000    -5.097000000
H     0.458000000    -4.270000000    -6.549000000
O     0.875000000     5.921000000     4.534000000
H     0.146000000     5.984000000     5.151000000
H     0.473000000     6.059000000     3.675000000
O     3.702000000    -3.000000000     0.846000000
H     3.149000000    -2.364000000     1.298000000
H     3.860000000    -2.611000000    -0.014000000
O     2.005000000     4.589000000    -1.362000000
H     2.925000000     4.395000000    -1.541000000
H     2.026000000     5.162000000    -0.596000000
O     0.735000000    -1.464000000     6.420000000
H     0.429000000    -2.207000000     6.939000000
H     0.232000000    -1.515000000     5.607000000
O     4.674000000     2.841000000    -1.858000000
H     5.206000000     2.380000000    -2.506000000
H     4.620000000     3.739000000    -2.186000000
O    -2.179000000     5.653000000     4.461000000
H    -3.058000000     6.017000000     4.358000000
H    -1.919000000     5.900000000     5.348000000
O    -2.115000000    -2.808000000    -4.819000000
H    -1.355000000    -3.074000000    -5.336000000
H    -1.994000000    -1.869000000    -4.681000000
O    -3.655000000    -2.066000000     2.348000000
H    -4.460000000    -1.781000000     2.781000000
H    -3.184000000    -2.561000000     3.019000000
O    -1.230000000     2.758000000     7.662000000
H    -1.711000000     3.391000000     8.196000000
H    -1.599000000     2.856000000     6.785000000
O    -1.019000000     0.079000000     8.035000000
H    -0.573000000     0.229000000     7.201000000
H    -1.131000000     0.953000000     8.408000000
O     4.262000000    -5.464000000     1.461000000
H     4.943000000    -5.162000000     2.062000000
H     3.905000000    -4.662000000     1.080000000
O     2.847000000    -2.205000000    -5.357000000
H     1.896000000    -2.310000000    -5.403000000
H     3.192000000    -2.896000000    -5.922000000
O     0.047000000    -0.021000000    -7.303000000
H    -0.363000000     0.687000000    -7.800000000
H    -0.553000000    -0.181000000    -6.574000000
O    -4.254000000     0.671000000     3.429000000
H    -3.304000000     0.661000000     3.310000000
H    -4.511000000     1.570000000     3.225000000
O    -0.311000000     8.290000000     2.504000000
H    -0.354000000     7.335000000     2.552000000
H    -1.192000000     8.582000000     2.737000000
O    -5.815000000     1.188000000     0.188000000
H    -5.125000000     0.686000000     0.623000000
H    -5.365000000     1.954000000    -0.168000000
O    -0.866000000     4.505000000    -1.934000000
H    -1.371000000     5.179000000    -1.481000000
H     0.047000000     4.713000000    -1.732000000
O     1.958000000    -4.150000000     3.658000000
H     2.236000000    -3.387000000     3.151000000
H     1.975000000    -4.873000000     3.031000000
O    -3.129000000     0.177000000    -2.967000000
H    -3.376000000    -0.554000000    -2.401000000
H    -3.119000000     0.938000000    -2.387000000
O     3.048000000     0.983000000     2.589000000
H     3.534000000     1.492000000     1.939000000
H     2.484000000     1.623000000     3.021000000
O     1.376000000     2.835000000     6.847000000
H     0.535000000     3.062000000     7.244000000
H     1.198000000     2.808000000     5.907000000
O     3.847000000     0.512000000    -4.220000000
H     3.686000000    -0.303000000    -4.695000000
H     3.366000000     1.176000000    -4.715000000
O    -0.457000000     5.452000000     2.269000000
H    -0.262000000     4.533000000     2.084000000
H    -1.411000000     5.484000000     2.339000000
O    -3.551000000    -0.704000000    -0.157000000
H    -3.715000000    -1.125000000     0.687000000
H    -2.608000000    -0.800000000    -0.293000000
O    -0.542000000     4.308000000    -4.792000000
H    -0.481000000     4.563000000    -3.872000000
H     0.366000000     4.173000000    -5.065000000
O     3.609000000    -0.492000000    -1.516000000
H     3.479000000    -1.058000000    -2.277000000
H     3.217000000     0.344000000    -1.770000000
O    -2.364000000     3.111000000     5.129000000
H    -2.073000000     2.399000000     4.559000000
H    -2.203000000     3.906000000     4.621000000
