144
-2797.36063
O     5.380000000     1.426000000     0.418000000
H     4.963000000     0.918000000     1.114000000
H     4.740000000     2.104000000     0.201000000
O    -2.839000000    -3.052000000     0.098000000
H    -2.123000000    -2.521000000    -0.250000000
H    -2.522000000    -3.953000000     0.034000000
O     4.184000000     0.010000000     2.465000000
H     3.902000000    -0.762000000     1.975000000
H     3.388000000     0.327000000     2.892000000
O    -3.010000000    -5.070000000    -2.820000000
H    -3.389000000    -4.406000000    -3.396000000
H    -2.353000000    -5.509000000    -3.360000000
O    -3.548000000     2.177000000    -3.348000000
H    -4.109000000     2.476000000    -4.064000000
H    -3.380000000     2.964000000    -2.830000000
O     4.264000000     3.890000000     4.397000000
H     4.997000000     3.478000000     4.856000000
H     4.023000000     3.259000000     3.718000000
O    -1.078000000     6.377000000     4.625000000
H    -1.010000000     7.286000000     4.332000000
H    -0.449000000     5.903000000     4.081000000
O     4.334000000     1.154000000     6.050000000
H     3.499000000     1.334000000     5.620000000
H     4.984000000     1.609000000     5.514000000
O    -6.782000000     1.216000000     4.389000000
H    -5.881000000     0.898000000     4.330000000
H    -6.872000000     1.512000000     5.295000000
O     2.962000000     1.309000000    -5.451000000
H     2.467000000     1.842000000    -6.074000000
H     3.494000000     0.732000000    -6.000000000
O    -5.386000000    -3.487000000    -0.154000000
H    -4.524000000    -3.177000000     0.122000000
H    -5.279000000    -3.698000000    -1.081000000
O    -1.428000000    -2.163000000     4.522000000
H    -1.445000000    -1.215000000     4.390000000
H    -0.987000000    -2.505000000     3.744000000
O     0.856000000     3.387000000     6.263000000
H     0.514000000     3.390000000     5.368000000
H     0.101000000     3.161000000     6.806000000
O    -1.144000000    -5.356000000    -0.104000000
H    -0.708000000    -5.263000000    -0.951000000
H    -0.431000000    -5.501000000     0.518000000
O     5.498000000     3.518000000    -1.988000000
H     5.056000000     2.728000000    -2.299000000
H     5.919000000     3.879000000    -2.768000000
O    -2.455000000     0.059000000     7.254000000
H    -2.987000000    -0.653000000     6.896000000
H    -3.046000000     0.524000000     7.846000000
O     6.752000000    -1.008000000    -5.174000000
H     7.127000000    -1.844000000    -5.453000000
H     6.034000000    -1.251000000    -4.590000000
O     2.576000000     6.439000000     4.641000000
H     2.610000000     5.547000000     4.294000000
H     3.302000000     6.482000000     5.263000000
O     3.292000000     3.318000000     0.741000000
H     3.544000000     4.214000000     0.964000000
H     2.684000000     3.415000000     0.008000000
O     0.359000000     5.159000000    -2.737000000
H     1.240000000     5.482000000    -2.924000000
H     0.166000000     4.557000000    -3.456000000
O     2.455000000    -4.317000000    -1.066000000
H     2.458000000    -4.284000000    -2.022000000
H     3.339000000    -4.601000000    -0.833000000
O    -4.229000000     0.510000000     3.647000000
H    -3.282000000     0.554000000     3.784000000
H    -4.389000000    -0.393000000     3.373000000
O     3.368000000    -1.980000000     0.570000000
H     4.085000000    -1.605000000     0.059000000
H     2.739000000    -2.282000000    -0.086000000
O    -3.493000000    -3.651000000    -5.113000000
H    -3.397000000    -4.485000000    -5.572000000
H    -3.126000000    -3.003000000    -5.714000000
O    -4.659000000    -1.996000000     2.797000000
H    -5.101000000    -2.296000000     2.003000000
H    -4.244000000    -2.782000000     3.152000000
O     2.066000000    -1.462000000     3.981000000
H     2.201000000    -2.199000000     4.577000000
H     1.314000000    -1.720000000     3.448000000
O    -5.856000000     2.193000000     1.590000000
H    -5.864000000     1.444000000     2.186000000
H    -5.023000000     2.630000000     1.765000000
O     2.557000000    -2.049000000    -6.455000000
H     3.280000000    -1.461000000    -6.676000000
H     1.769000000    -1.550000000    -6.669000000
O    -2.941000000    -0.989000000    -7.441000000
H    -3.898000000    -1.011000000    -7.410000000
H    -2.687000000    -0.522000000    -6.645000000
O    -3.932000000    -1.823000000     5.908000000
H    -4.751000000    -2.226000000     5.622000000
H    -3.336000000    -1.941000000     5.168000000
O    -4.189000000     3.469000000     4.003000000
H    -4.323000000     2.556000000     4.256000000
H    -5.040000000     3.752000000     3.668000000
O     2.242000000     1.123000000     4.394000000
H     1.887000000     0.263000000     4.618000000
H     1.504000000     1.593000000     4.006000000
O    -3.263000000     2.939000000    -0.729000000
H    -3.103000000     2.057000000    -1.064000000
H    -3.004000000     2.896000000     0.192000000
O     1.397000000     6.006000000     0.293000000
H     0.777000000     5.516000000    -0.247000000
H     1.750000000     6.675000000    -0.294000000
O     0.172000000    -5.084000000    -2.914000000
H     0.032000000    -5.420000000    -3.799000000
H     0.039000000    -4.139000000    -2.992000000
O    -1.759000000     2.293000000     5.924000000
H    -1.506000000     1.935000000     5.073000000
H    -2.072000000     1.536000000     6.419000000
O    -0.723000000     4.571000000    -0.618000000
H    -1.642000000     4.308000000    -0.665000000
H    -0.532000000     4.932000000    -1.484000000
O    -2.041000000     0.713000000    -5.371000000
H    -1.242000000     1.112000000    -5.715000000
H    -2.334000000     1.317000000    -4.688000000
O     0.111000000    -2.560000000     2.332000000
H     0.246000000    -3.501000000     2.220000000
H     0.161000000    -2.204000000     1.445000000
O     5.026000000    -2.033000000    -3.057000000
H     5.353000000    -2.931000000    -3.003000000
H     5.220000000    -1.655000000    -2.199000000
O     2.905000000    -3.698000000    -4.193000000
H     2.619000000    -2.995000000    -4.777000000
H     3.647000000    -3.326000000    -3.716000000
O     0.278000000     4.275000000     3.013000000
H     0.179000000     3.323000000     3.026000000
H     0.756000000     4.455000000     2.204000000
O     0.169000000     3.707000000    -5.091000000
H     0.334000000     3.106000000    -5.818000000
H     0.985000000     4.198000000    -4.997000000
O    -5.429000000    -2.766000000    -3.192000000
H    -5.900000000    -1.935000000    -3.251000000
H    -4.821000000    -2.749000000    -3.931000000
O     5.555000000    -1.019000000    -0.649000000
H     6.451000000    -1.305000000    -0.472000000
H     5.579000000    -0.069000000    -0.537000000
O     0.157000000    -0.311000000     6.998000000
H     0.116000000    -0.720000000     6.134000000
H    -0.729000000     0.019000000     7.149000000
O    -2.394000000     4.000000000     2.073000000
H    -1.464000000     4.116000000     2.268000000
H    -2.813000000     3.938000000     2.931000000
O     3.947000000     1.482000000    -2.701000000
H     3.697000000     1.674000000    -3.605000000
H     3.663000000     0.579000000    -2.561000000
