144
-2796.44331
O    -3.199000000    -3.620000000    -3.580000000
H    -2.322000000    -3.979000000    -3.712000000
H    -3.711000000    -3.960000000    -4.314000000
O    -0.622000000    -6.177000000    -0.885000000
H     0.037000000    -5.517000000    -0.666000000
H    -0.155000000    -7.010000000    -0.825000000
O     4.225000000     1.386000000    -6.114000000
H     4.373000000     1.010000000    -6.981000000
H     3.465000000     0.912000000    -5.774000000
O     1.659000000    -4.044000000    -2.595000000
H     1.369000000    -4.067000000    -1.683000000
H     1.996000000    -4.924000000    -2.762000000
O    -1.908000000    -2.552000000    -6.632000000
H    -1.628000000    -1.657000000    -6.438000000
H    -2.840000000    -2.564000000    -6.414000000
O     4.916000000     2.603000000     4.573000000
H     5.585000000     2.464000000     3.903000000
H     4.302000000     1.879000000     4.453000000
O     0.757000000     1.739000000    -5.201000000
H     1.307000000     0.982000000    -5.400000000
H     1.294000000     2.280000000    -4.622000000
O    -3.648000000     1.872000000     3.106000000
H    -2.912000000     1.271000000     2.990000000
H    -3.331000000     2.521000000     3.734000000
O    -0.085000000    -2.660000000     1.995000000
H    -0.383000000    -3.467000000     2.415000000
H    -0.701000000    -1.992000000     2.296000000
O     0.326000000    -0.820000000     5.597000000
H    -0.237000000    -0.519000000     4.883000000
H     1.164000000    -0.385000000     5.440000000
O    -7.353000000     1.689000000     2.159000000
H    -6.646000000     1.270000000     1.668000000
H    -8.099000000     1.099000000     2.054000000
O     2.442000000     3.512000000     2.988000000
H     1.603000000     3.059000000     3.076000000
H     2.727000000     3.665000000     3.889000000
O    -3.687000000     4.120000000     4.996000000
H    -4.232000000     4.541000000     5.660000000
H    -4.264000000     4.021000000     4.239000000
O     2.074000000    -2.733000000    -4.970000000
H     1.866000000    -3.274000000    -5.732000000
H     1.888000000    -3.296000000    -4.219000000
O    -0.993000000     4.698000000     5.208000000
H    -0.946000000     5.620000000     4.955000000
H    -1.931000000     4.506000000     5.240000000
O    -4.252000000    -1.177000000    -3.079000000
H    -3.704000000    -1.953000000    -2.960000000
H    -4.708000000    -1.330000000    -3.906000000
O     6.413000000    -0.359000000    -1.038000000
H     7.160000000     0.240000000    -1.028000000
H     5.964000000    -0.169000000    -1.861000000
O     0.444000000     2.688000000     6.402000000
H    -0.083000000     3.477000000     6.279000000
H     0.488000000     2.291000000     5.532000000
O     0.836000000     0.711000000     8.347000000
H     0.585000000     1.429000000     7.766000000
H     0.509000000     0.972000000     9.207000000
O     5.293000000    -0.803000000     1.452000000
H     5.647000000    -0.801000000     0.563000000
H     4.429000000    -1.206000000     1.366000000
O     1.204000000     2.704000000    -2.602000000
H     1.198000000     1.785000000    -2.334000000
H     2.052000000     3.034000000    -2.303000000
O     2.034000000    -3.047000000     6.208000000
H     2.295000000    -2.754000000     7.081000000
H     1.800000000    -2.242000000     5.745000000
O    -5.696000000     0.901000000     4.705000000
H    -5.124000000     0.190000000     4.993000000
H    -5.213000000     1.323000000     3.993000000
O    -2.401000000     2.835000000    -3.908000000
H    -2.604000000     3.087000000    -3.007000000
H    -1.449000000     2.910000000    -3.970000000
O    -3.364000000     3.096000000    -1.335000000
H    -3.783000000     2.283000000    -1.616000000
H    -4.081000000     3.627000000    -0.986000000
O     1.972000000    -0.498000000    -6.398000000
H     2.088000000    -1.298000000    -5.885000000
H     1.656000000    -0.803000000    -7.249000000
O    -5.088000000     0.822000000     0.861000000
H    -4.798000000    -0.054000000     1.116000000
H    -4.555000000     1.414000000     1.391000000
O    -0.968000000    -5.341000000    -3.642000000
H    -1.204000000    -6.152000000    -3.192000000
H    -0.194000000    -5.025000000    -3.176000000
O     2.546000000    -1.642000000     2.653000000
H     1.819000000    -1.919000000     2.095000000
H     2.988000000    -2.457000000     2.891000000
O    -1.687000000     0.837000000    -6.165000000
H    -0.919000000     1.407000000    -6.116000000
H    -1.908000000     0.654000000    -5.252000000
O     3.170000000     0.659000000     3.998000000
H     2.952000000    -0.217000000     3.679000000
H     2.349000000     1.148000000     3.935000000
O    -1.314000000    -2.715000000     6.627000000
H    -1.536000000    -3.114000000     5.786000000
H    -0.713000000    -2.005000000     6.403000000
O    -5.174000000     1.101000000    -2.180000000
H    -4.813000000     0.285000000    -2.527000000
H    -5.286000000     0.935000000    -1.244000000
O    -1.303000000     4.259000000     0.225000000
H    -1.913000000     4.656000000     0.847000000
H    -1.664000000     3.388000000     0.059000000
O     6.109000000     1.947000000     1.546000000
H     6.932000000     1.633000000     1.920000000
H     5.598000000     1.152000000     1.392000000
O     4.335000000    -3.038000000    -2.939000000
H     4.270000000    -2.567000000    -3.770000000
H     3.459000000    -3.398000000    -2.799000000
O     3.135000000     3.229000000    -4.573000000
H     3.894000000     2.913000000    -4.082000000
H     3.285000000     2.922000000    -5.467000000
O     3.449000000     3.667000000    -1.434000000
H     3.585000000     3.958000000    -0.533000000
H     4.191000000     3.091000000    -1.615000000
O    -3.867000000    -1.861000000     1.414000000
H    -3.615000000    -1.792000000     0.493000000
H    -4.616000000    -2.457000000     1.414000000
O    -3.987000000    -0.785000000     6.043000000
H    -3.404000000    -0.053000000     6.243000000
H    -3.545000000    -1.259000000     5.339000000
O     1.077000000    -4.243000000     0.022000000
H     1.884000000    -4.525000000     0.452000000
H     0.758000000    -3.519000000     0.561000000
O    -2.032000000     5.422000000     2.660000000
H    -1.593000000     5.018000000     3.408000000
H    -2.952000000     5.469000000     2.918000000
O    -2.642000000    -1.918000000     3.912000000
H    -3.095000000    -2.292000000     3.156000000
H    -1.987000000    -1.332000000     3.534000000
O    -2.049000000     1.062000000     7.494000000
H    -1.222000000     0.945000000     7.026000000
H    -2.102000000     2.004000000     7.654000000
O    -4.612000000    -4.064000000    -1.295000000
H    -3.877000000    -4.257000000    -0.714000000
H    -4.268000000    -4.220000000    -2.175000000
O    -0.547000000     4.871000000    -2.344000000
H    -1.047000000     4.615000000    -1.569000000
H     0.222000000     4.302000000    -2.332000000
O     1.567000000     4.665000000     0.511000000
H     1.667000000     4.829000000     1.449000000
H     0.817000000     4.073000000     0.450000000
O     4.755000000     4.361000000     1.563000000
H     3.864000000     4.386000000     1.913000000
H     5.006000000     3.438000000     1.614000000
