144
-2860.71774
O     1.974000000    -4.520000000    -3.767000000
H     2.221000000    -4.002000000    -3.000000000
H     1.672000000    -3.873000000    -4.405000000
O    -3.149000000     3.933000000    -1.074000000
H    -3.590000000     4.759000000    -1.276000000
H    -3.856000000     3.342000000    -0.815000000
O    -2.543000000    -3.649000000     3.062000000
H    -2.927000000    -2.888000000     2.627000000
H    -3.011000000    -3.711000000     3.895000000
O     1.614000000     2.063000000    -5.906000000
H     1.949000000     1.333000000    -5.385000000
H     2.355000000     2.330000000    -6.450000000
O     0.576000000    -4.507000000     3.349000000
H     0.413000000    -4.870000000     2.479000000
H    -0.242000000    -4.648000000     3.825000000
O    -0.826000000    -4.643000000    -1.119000000
H    -0.918000000    -4.955000000    -0.219000000
H    -0.212000000    -5.256000000    -1.524000000
O    -3.988000000    -4.476000000    -1.099000000
H    -3.382000000    -3.823000000    -0.749000000
H    -3.540000000    -4.831000000    -1.867000000
O     0.253000000    -1.657000000     5.567000000
H    -0.525000000    -1.984000000     5.116000000
H     0.631000000    -1.020000000     4.961000000
O     1.226000000     1.231000000     8.355000000
H     0.904000000     1.483000000     7.490000000
H     0.662000000     1.703000000     8.967000000
O     3.804000000    -1.425000000     6.962000000
H     4.428000000    -1.816000000     7.573000000
H     2.969000000    -1.443000000     7.429000000
O     1.295000000    -2.740000000    -5.817000000
H     2.079000000    -2.242000000    -6.048000000
H     0.603000000    -2.082000000    -5.754000000
O     0.008000000     4.098000000     3.289000000
H     0.008000000     3.156000000     3.461000000
H    -0.720000000     4.230000000     2.682000000
O     2.616000000    -3.518000000    -1.288000000
H     2.143000000    -3.940000000    -0.571000000
H     3.521000000    -3.810000000    -1.184000000
O    -0.249000000    -0.586000000    -6.012000000
H    -1.184000000    -0.789000000    -6.042000000
H    -0.147000000     0.161000000    -6.601000000
O    -0.284000000     4.784000000     5.957000000
H    -1.097000000     5.155000000     5.615000000
H     0.279000000     4.693000000     5.189000000
O    -2.796000000    -1.235000000     5.624000000
H    -2.762000000    -0.804000000     4.770000000
H    -2.801000000    -0.515000000     6.255000000
O    -0.043000000     1.925000000     6.200000000
H    -0.073000000     2.881000000     6.251000000
H    -0.216000000     1.729000000     5.280000000
O     5.080000000    -4.385000000    -0.324000000
H     4.745000000    -3.972000000     0.472000000
H     5.338000000    -5.264000000    -0.048000000
O     2.989000000     1.318000000     5.478000000
H     3.479000000     1.634000000     4.719000000
H     2.435000000     0.619000000     5.132000000
O    -4.909000000     2.786000000     2.356000000
H    -4.185000000     2.329000000     2.783000000
H    -4.948000000     2.406000000     1.478000000
O    -4.694000000    -0.803000000    -1.652000000
H    -3.963000000    -1.403000000    -1.502000000
H    -4.453000000    -0.326000000    -2.446000000
O     2.683000000    -3.596000000     4.720000000
H     1.770000000    -3.521000000     4.443000000
H     2.854000000    -2.788000000     5.205000000
O     5.195000000     2.322000000     4.068000000
H     4.542000000     2.807000000     3.565000000
H     6.002000000     2.824000000     3.961000000
O    -0.020000000     4.250000000    -5.262000000
H     0.604000000     4.825000000    -5.705000000
H     0.298000000     3.366000000    -5.443000000
O    -1.529000000    -5.540000000     1.385000000
H    -1.491000000    -6.379000000     1.844000000
H    -1.813000000    -4.915000000     2.052000000
O    -2.948000000    -1.109000000    -6.474000000
H    -3.630000000    -1.657000000    -6.084000000
H    -3.428000000    -0.459000000    -6.987000000
O    -2.045000000    -3.809000000    -3.317000000
H    -1.606000000    -3.929000000    -2.475000000
H    -1.755000000    -2.948000000    -3.618000000
O     2.163000000     2.139000000    -1.970000000
H     2.584000000     2.227000000    -1.114000000
H     1.662000000     1.326000000    -1.908000000
O     2.677000000     3.762000000     2.999000000
H     2.833000000     4.273000000     3.793000000
H     1.733000000     3.825000000     2.854000000
O     1.143000000    -1.482000000     8.330000000
H     0.700000000    -1.693000000     7.509000000
H     1.116000000    -0.526000000     8.378000000
O    -4.179000000     0.714000000    -3.663000000
H    -3.375000000     1.080000000    -4.030000000
H    -4.872000000     1.024000000    -4.246000000
O     5.438000000    -0.521000000     5.106000000
H     4.892000000    -0.773000000     5.850000000
H     5.352000000     0.431000000     5.057000000
O    -1.085000000     4.512000000     0.729000000
H    -0.223000000     4.453000000     0.318000000
H    -1.700000000     4.291000000     0.030000000
O    -1.808000000     6.750000000     2.323000000
H    -2.357000000     7.521000000     2.177000000
H    -1.909000000     6.230000000     1.526000000
O     1.464000000     4.812000000    -0.465000000
H     1.788000000     3.913000000    -0.510000000
H     1.821000000     5.235000000    -1.246000000
O     3.775000000     0.825000000    -4.082000000
H     3.762000000     1.633000000    -3.568000000
H     3.615000000     0.132000000    -3.441000000
O     3.337000000     2.379000000     0.411000000
H     3.223000000     2.937000000     1.181000000
H     4.144000000     2.694000000     0.005000000
O    -2.514000000    -2.048000000    -0.389000000
H    -1.558000000    -2.002000000    -0.429000000
H    -2.745000000    -1.547000000     0.393000000
O    -3.384000000    -1.034000000     2.014000000
H    -3.108000000    -0.123000000     2.113000000
H    -4.320000000    -0.981000000     1.820000000
O    -2.107000000     0.757000000     7.475000000
H    -1.458000000     1.003000000     6.816000000
H    -1.593000000     0.375000000     8.186000000
O     3.870000000    -1.013000000    -2.120000000
H     4.264000000    -0.763000000    -1.284000000
H     3.375000000    -1.808000000    -1.924000000
O    -5.034000000     1.709000000    -0.336000000
H    -4.856000000     0.868000000    -0.758000000
H    -5.800000000     2.051000000    -0.797000000
O     3.855000000    -0.602000000     2.982000000
H     4.355000000    -0.599000000     3.798000000
H     2.961000000    -0.388000000     3.248000000
O     3.504000000    -3.594000000     2.273000000
H     3.343000000    -3.617000000     3.216000000
H     3.619000000    -2.665000000     2.073000000
O    -2.518000000     2.246000000    -5.055000000
H    -2.744000000     2.432000000    -5.966000000
H    -1.940000000     2.966000000    -4.800000000
O     4.419000000    -0.144000000     0.450000000
H     4.368000000    -0.481000000     1.345000000
H     3.966000000     0.698000000     0.485000000
O    -2.652000000     1.265000000     3.712000000
H    -2.887000000     2.004000000     4.272000000
H    -1.708000000     1.355000000     3.581000000
O     0.831000000     6.877000000     1.599000000
H     1.184000000     6.072000000     1.222000000
H    -0.010000000     6.616000000     1.975000000
