144
-2788.21250
O    -2.990000000    -2.750000000     3.738000000
H    -2.836000000    -3.575000000     3.279000000
H    -2.116000000    -2.436000000     3.969000000
O     4.759000000     3.952000000     0.441000000
H     4.769000000     3.207000000     1.042000000
H     3.927000000     4.391000000     0.618000000
O    -4.518000000     1.858000000     0.404000000
H    -4.752000000     1.770000000     1.328000000
H    -3.856000000     1.182000000     0.260000000
O    -2.123000000     4.101000000    -3.283000000
H    -2.166000000     5.020000000    -3.017000000
H    -3.015000000     3.775000000    -3.165000000
O     2.093000000    -1.864000000    -1.367000000
H     1.432000000    -1.175000000    -1.426000000
H     2.736000000    -1.637000000    -2.038000000
O     1.611000000    -3.212000000    -6.291000000
H     1.278000000    -2.366000000    -5.990000000
H     0.897000000    -3.578000000    -6.813000000
O    -0.044000000     5.334000000    -4.996000000
H    -0.281000000     6.249000000    -5.145000000
H    -0.815000000     4.952000000    -4.577000000
O    -4.241000000    -2.555000000    -7.016000000
H    -3.969000000    -3.073000000    -6.258000000
H    -4.926000000    -3.080000000    -7.430000000
O     3.746000000     3.294000000     4.793000000
H     3.262000000     2.647000000     4.279000000
H     4.645000000     3.234000000     4.469000000
O     2.415000000     6.050000000     2.831000000
H     1.793000000     5.334000000     2.961000000
H     2.820000000     6.175000000     3.689000000
O     1.881000000     4.787000000     0.143000000
H     1.581000000     4.708000000    -0.763000000
H     1.716000000     5.702000000     0.370000000
O     1.434000000    -1.599000000     7.434000000
H     1.931000000    -1.411000000     6.638000000
H     1.483000000    -0.790000000     7.943000000
O     4.409000000     1.402000000     2.626000000
H     3.453000000     1.360000000     2.655000000
H     4.696000000     0.536000000     2.915000000
O    -2.671000000     3.649000000     5.443000000
H    -2.636000000     3.034000000     6.176000000
H    -2.133000000     3.242000000     4.764000000
O    -3.181000000    -6.478000000    -0.258000000
H    -3.092000000    -5.717000000    -0.832000000
H    -3.752000000    -7.076000000    -0.741000000
O     6.146000000     3.408000000     3.336000000
H     5.690000000     2.758000000     2.802000000
H     6.716000000     2.891000000     3.907000000
O    -1.727000000    -4.335000000     2.020000000
H    -2.106000000    -4.144000000     1.163000000
H    -0.799000000    -4.120000000     1.925000000
O     4.558000000     2.111000000     7.113000000
H     4.901000000     2.908000000     7.517000000
H     4.037000000     2.424000000     6.373000000
O     2.554000000     2.035000000    -3.829000000
H     1.864000000     2.695000000    -3.885000000
H     2.719000000     1.939000000    -2.891000000
O    -0.486000000    -2.316000000     4.507000000
H     0.189000000    -2.994000000     4.540000000
H    -0.034000000    -1.544000000     4.168000000
O     1.010000000     0.887000000     8.826000000
H     0.756000000     1.165000000     7.946000000
H     1.075000000     1.701000000     9.325000000
O    -3.114000000    -3.786000000    -4.868000000
H    -2.302000000    -4.275000000    -4.739000000
H    -3.806000000    -4.441000000    -4.772000000
O    -3.790000000     1.651000000     3.324000000
H    -3.808000000     0.710000000     3.147000000
H    -2.860000000     1.861000000     3.406000000
O    -2.741000000     1.707000000     7.223000000
H    -2.645000000     0.902000000     6.715000000
H    -2.895000000     1.408000000     8.119000000
O    -1.782000000    -1.293000000    -8.039000000
H    -2.438000000    -1.569000000    -8.679000000
H    -2.292000000    -1.029000000    -7.273000000
O    -2.286000000    -0.662000000     5.703000000
H    -1.569000000    -1.289000000     5.607000000
H    -3.038000000    -1.095000000     5.299000000
O     3.415000000     5.496000000     5.918000000
H     3.573000000     4.646000000     5.508000000
H     4.020000000     5.520000000     6.660000000
O     1.119000000     4.288000000    -2.316000000
H     0.191000000     4.388000000    -2.527000000
H     1.535000000     5.065000000    -2.690000000
O     0.467000000    -0.534000000    -6.268000000
H     0.033000000    -0.805000000    -7.076000000
H     0.007000000     0.263000000    -6.004000000
O    -5.998000000     0.622000000    -4.151000000
H    -5.593000000     0.219000000    -4.920000000
H    -6.540000000    -0.071000000    -3.775000000
O    -1.651000000     5.236000000     2.871000000
H    -0.806000000     4.804000000     2.751000000
H    -1.732000000     5.817000000     2.114000000
O    -4.654000000    -2.292000000    -0.122000000
H    -4.087000000    -2.528000000    -0.856000000
H    -5.027000000    -3.124000000     0.169000000
O     0.427000000     1.023000000     6.066000000
H     0.889000000     0.735000000     5.278000000
H    -0.169000000     0.303000000     6.270000000
O     2.981000000    -0.109000000    -5.593000000
H     2.083000000    -0.394000000    -5.761000000
H     2.909000000     0.833000000    -5.439000000
O     3.578000000    -3.260000000     0.714000000
H     4.506000000    -3.032000000     0.776000000
H     3.171000000    -2.496000000     0.305000000
O    -1.072000000    -5.849000000    -4.469000000
H    -0.741000000    -5.171000000    -3.880000000
H    -1.200000000    -6.613000000    -3.907000000
O    -4.414000000    -0.870000000     2.078000000
H    -4.559000000    -1.212000000     1.197000000
H    -4.080000000    -1.617000000     2.574000000
O    -1.165000000     2.269000000     3.585000000
H    -0.464000000     2.627000000     3.040000000
H    -0.721000000     1.669000000     4.184000000
O    -2.978000000    -3.973000000    -1.657000000
H    -2.043000000    -3.816000000    -1.521000000
H    -3.166000000    -3.576000000    -2.507000000
O     0.712000000     3.972000000     2.504000000
H     1.105000000     4.179000000     1.656000000
H     1.136000000     3.157000000     2.772000000
O     0.780000000     4.177000000     6.792000000
H     1.101000000     3.293000000     6.612000000
H     1.431000000     4.754000000     6.393000000
O     2.420000000    -1.963000000     4.955000000
H     1.778000000    -1.284000000     4.749000000
H     3.156000000    -1.783000000     4.370000000
O    -0.286000000    -3.906000000    -1.350000000
H     0.523000000    -3.423000000    -1.183000000
H    -0.087000000    -4.805000000    -1.087000000
O    -0.645000000     2.079000000    -5.514000000
H    -0.620000000     2.717000000    -6.226000000
H    -1.262000000     2.450000000    -4.882000000
O     0.912000000    -4.117000000     1.498000000
H     1.178000000    -4.965000000     1.853000000
H     1.666000000    -3.825000000     0.985000000
O     4.670000000    -1.329000000     3.193000000
H     4.877000000    -2.241000000     2.987000000
H     5.499000000    -0.958000000     3.497000000
O     4.542000000     1.516000000    -1.625000000
H     5.094000000     2.056000000    -1.060000000
H     4.735000000     0.617000000    -1.360000000
O    -4.671000000     2.480000000    -2.401000000
H    -5.175000000     1.859000000    -2.927000000
H    -4.694000000     2.117000000    -1.515000000
