144
-2841.39978
O    -2.875000000     0.852000000    -4.336000000
H    -2.924000000     1.599000000    -3.741000000
H    -2.972000000     0.087000000    -3.769000000
O     1.088000000    -0.298000000     7.512000000
H     0.383000000    -0.810000000     7.115000000
H     0.681000000     0.541000000     7.730000000
O     0.724000000     4.138000000    -1.758000000
H     1.313000000     3.525000000    -2.197000000
H     1.202000000     4.410000000    -0.975000000
O    -2.201000000     3.159000000    -6.169000000
H    -1.805000000     4.030000000    -6.152000000
H    -2.050000000     2.810000000    -5.291000000
O     1.403000000    -2.494000000     1.958000000
H     1.637000000    -2.502000000     2.886000000
H     1.818000000    -1.703000000     1.614000000
O     0.147000000     4.811000000     2.824000000
H    -0.223000000     5.089000000     3.663000000
H    -0.552000000     4.304000000     2.411000000
O    -5.733000000     0.872000000     1.625000000
H    -6.031000000    -0.037000000     1.636000000
H    -5.736000000     1.137000000     2.545000000
O     2.141000000    -2.905000000     4.487000000
H     1.708000000    -2.117000000     4.815000000
H     3.044000000    -2.828000000     4.795000000
O    -2.320000000     2.028000000    -1.948000000
H    -2.037000000     1.207000000    -1.546000000
H    -3.032000000     2.336000000    -1.388000000
O    -0.971000000    -3.473000000     0.766000000
H    -0.130000000    -3.221000000     1.146000000
H    -1.229000000    -2.720000000     0.235000000
O    -5.162000000    -0.572000000     6.812000000
H    -4.879000000    -1.009000000     6.009000000
H    -5.030000000    -1.225000000     7.499000000
O    -3.321000000     1.658000000     6.876000000
H    -3.056000000     2.082000000     6.061000000
H    -3.937000000     0.977000000     6.603000000
O     1.973000000     2.940000000     4.152000000
H     1.375000000     2.203000000     4.027000000
H     1.472000000     3.706000000     3.870000000
O    -0.327000000     1.977000000     8.086000000
H    -1.158000000     1.749000000     7.669000000
H    -0.352000000     2.931000000     8.164000000
O    -4.865000000    -4.180000000     2.311000000
H    -3.943000000    -4.287000000     2.545000000
H    -5.243000000    -5.053000000     2.424000000
O    -4.089000000    -1.444000000     4.345000000
H    -4.848000000    -1.347000000     3.769000000
H    -3.362000000    -1.068000000     3.848000000
O    -4.870000000     2.015000000    -0.805000000
H    -5.309000000     1.696000000    -1.594000000
H    -5.143000000     1.408000000    -0.118000000
O     3.566000000    -3.651000000     0.746000000
H     2.643000000    -3.500000000     0.951000000
H     3.994000000    -2.817000000     0.939000000
O     1.847000000     3.450000000    -4.831000000
H     1.340000000     2.691000000    -5.119000000
H     2.354000000     3.130000000    -4.085000000
O    -0.930000000    -4.286000000    -5.811000000
H    -0.482000000    -4.559000000    -5.010000000
H    -0.351000000    -3.629000000    -6.197000000
O     1.718000000    -4.150000000    -5.009000000
H     2.092000000    -3.328000000    -4.692000000
H     2.213000000    -4.347000000    -5.804000000
O     4.288000000     3.075000000     5.838000000
H     4.311000000     3.619000000     6.625000000
H     3.369000000     3.077000000     5.572000000
O    -1.818000000     0.005000000    -6.761000000
H    -2.192000000     0.212000000    -5.904000000
H    -2.520000000    -0.450000000    -7.226000000
O     6.650000000    -2.362000000    -2.407000000
H     5.898000000    -1.791000000    -2.568000000
H     6.289000000    -3.248000000    -2.438000000
O     2.115000000    -6.257000000    -3.174000000
H     2.781000000    -5.850000000    -2.620000000
H     1.977000000    -5.628000000    -3.883000000
O     3.160000000     2.327000000    -2.523000000
H     3.364000000     2.136000000    -1.608000000
H     3.821000000     2.967000000    -2.787000000
O    -3.964000000     1.789000000     3.833000000
H    -3.463000000     2.292000000     4.475000000
H    -3.310000000     1.248000000     3.390000000
O    -3.771000000    -1.230000000    -2.815000000
H    -4.516000000    -0.634000000    -2.730000000
H    -4.057000000    -2.034000000    -2.383000000
O     3.763000000    -2.059000000    -4.626000000
H     4.627000000    -2.205000000    -5.011000000
H     3.177000000    -1.977000000    -5.379000000
O    -1.185000000     3.242000000     0.447000000
H    -0.856000000     3.840000000    -0.224000000
H    -0.816000000     2.390000000     0.211000000
O     0.545000000     1.297000000    -5.826000000
H     1.134000000     0.910000000    -6.474000000
H    -0.332000000     1.063000000    -6.129000000
O    -1.159000000    -1.252000000     6.051000000
H    -1.458000000    -1.952000000     5.470000000
H    -1.593000000    -0.465000000     5.721000000
O     5.971000000    -0.509000000    -0.387000000
H     5.509000000    -0.266000000    -1.189000000
H     6.800000000    -0.878000000    -0.691000000
O     1.650000000     5.043000000     0.519000000
H     2.253000000     5.720000000     0.827000000
H     1.288000000     4.663000000     1.320000000
O     4.564000000     2.620000000     0.028000000
H     4.968000000     3.395000000     0.418000000
H     5.120000000     1.893000000     0.309000000
O     0.324000000    -1.917000000    -6.637000000
H    -0.236000000    -1.160000000    -6.465000000
H     0.839000000    -1.664000000    -7.403000000
O    -1.850000000     3.077000000     4.677000000
H    -1.208000000     2.388000000     4.510000000
H    -1.369000000     3.737000000     5.176000000
O    -2.373000000    -3.763000000     5.496000000
H    -2.773000000    -4.353000000     6.134000000
H    -2.867000000    -3.911000000     4.690000000
O     4.832000000    -0.296000000    -2.933000000
H     4.343000000    -0.961000000    -3.418000000
H     4.223000000     0.438000000    -2.853000000
O    -6.027000000    -1.739000000     2.459000000
H    -6.900000000    -1.697000000     2.849000000
H    -5.857000000    -2.675000000     2.352000000
O     4.505000000     1.553000000     2.982000000
H     3.805000000     2.175000000     3.181000000
H     5.311000000     2.025000000     3.192000000
O    -1.148000000     3.643000000    -3.621000000
H    -1.440000000     2.989000000    -2.986000000
H    -0.720000000     4.316000000    -3.092000000
O     1.726000000    -0.394000000     4.752000000
H     1.074000000    -0.079000000     4.126000000
H     1.382000000    -0.135000000     5.606000000
O    -4.069000000     4.119000000     0.647000000
H    -3.224000000     3.759000000     0.916000000
H    -4.507000000     3.395000000     0.199000000
O    -6.455000000     2.446000000     5.032000000
H    -6.625000000     3.378000000     4.894000000
H    -5.571000000     2.310000000     4.690000000
O    -2.168000000    -4.893000000     2.895000000
H    -1.523000000    -5.576000000     3.080000000
H    -1.792000000    -4.401000000     2.165000000
O    -4.794000000    -3.033000000    -0.684000000
H    -4.472000000    -2.721000000     0.161000000
H    -4.695000000    -3.984000000    -0.642000000
O     3.885000000    -0.887000000     1.780000000
H     4.696000000    -0.779000000     1.283000000
H     3.823000000    -0.094000000     2.312000000
