144
-2823.85052
O     3.174000000     3.349000000     0.408000000
H     3.217000000     2.563000000     0.953000000
H     3.024000000     4.062000000     1.029000000
O    -0.932000000     2.580000000    -2.481000000
H    -0.386000000     3.155000000    -1.945000000
H    -0.641000000     1.696000000    -2.256000000
O    -0.126000000    -5.201000000    -5.693000000
H    -0.007000000    -5.437000000    -4.773000000
H    -1.071000000    -5.257000000    -5.835000000
O     4.864000000     3.748000000     6.381000000
H     4.257000000     3.300000000     5.792000000
H     5.222000000     3.051000000     6.931000000
O    -1.628000000    -6.076000000     1.100000000
H    -2.000000000    -6.559000000     1.838000000
H    -1.426000000    -5.211000000     1.457000000
O     2.512000000    -4.073000000    -0.157000000
H     2.958000000    -3.264000000    -0.410000000
H     2.680000000    -4.156000000     0.781000000
O    -0.259000000    -5.033000000    -2.149000000
H     0.023000000    -5.868000000    -2.523000000
H     0.549000000    -4.624000000    -1.841000000
O    -3.195000000    -0.871000000     2.402000000
H    -3.109000000    -1.772000000     2.714000000
H    -3.583000000    -0.956000000     1.531000000
O     4.222000000     5.119000000     4.088000000
H     4.377000000     5.170000000     5.031000000
H     3.273000000     5.033000000     4.005000000
O     4.712000000     1.086000000    -4.702000000
H     4.484000000     1.959000000    -5.023000000
H     4.379000000     1.067000000    -3.805000000
O     5.048000000     2.518000000     2.888000000
H     4.700000000     3.393000000     3.060000000
H     4.306000000     2.032000000     2.527000000
O     6.924000000     1.481000000     4.362000000
H     6.073000000     1.724000000     3.995000000
H     7.057000000     2.095000000     5.084000000
O     1.316000000     4.153000000    -1.597000000
H     1.692000000     4.207000000    -2.476000000
H     1.920000000     3.591000000    -1.112000000
O     2.393000000     2.949000000     5.263000000
H     2.307000000     2.606000000     4.373000000
H     2.576000000     2.178000000     5.800000000
O     1.912000000     5.321000000     2.077000000
H     1.152000000     4.875000000     2.451000000
H     1.557000000     5.830000000     1.349000000
O     1.606000000     0.020000000    -4.972000000
H     1.846000000     0.133000000    -4.052000000
H     0.720000000    -0.343000000    -4.946000000
O    -0.428000000     0.906000000     4.920000000
H    -0.021000000     0.146000000     5.336000000
H     0.235000000     1.227000000     4.308000000
O     5.395000000    -1.257000000     5.154000000
H     6.299000000    -1.229000000     4.840000000
H     5.468000000    -1.530000000     6.069000000
O    -2.384000000     4.740000000     1.534000000
H    -1.539000000     4.695000000     1.982000000
H    -2.965000000     5.172000000     2.160000000
O    -4.719000000     5.338000000    -1.439000000
H    -5.483000000     5.642000000    -0.949000000
H    -4.377000000     4.609000000    -0.921000000
O    -0.169000000    -2.646000000    -6.737000000
H    -0.248000000    -3.494000000    -6.299000000
H    -0.552000000    -2.022000000    -6.120000000
O     0.811000000    -1.320000000     6.144000000
H     0.642000000    -1.891000000     5.395000000
H     0.183000000    -1.604000000     6.808000000
O    -4.385000000    -3.968000000    -0.268000000
H    -5.201000000    -4.411000000    -0.038000000
H    -4.557000000    -3.042000000    -0.095000000
O    -2.941000000     1.811000000     4.091000000
H    -2.096000000     1.472000000     4.385000000
H    -3.263000000     1.151000000     3.476000000
O     5.506000000     2.741000000    -1.005000000
H     4.867000000     3.368000000    -0.666000000
H     5.455000000     2.838000000    -1.956000000
O    -4.556000000    -0.942000000    -5.607000000
H    -4.646000000    -0.688000000    -6.526000000
H    -4.137000000    -1.802000000    -5.636000000
O     0.929000000     4.690000000     6.819000000
H     1.233000000     3.964000000     6.275000000
H     0.520000000     5.297000000     6.203000000
O    -3.666000000     2.957000000    -0.427000000
H    -3.272000000     3.264000000     0.390000000
H    -2.948000000     2.971000000    -1.060000000
O    -1.123000000    -0.094000000    -5.722000000
H    -0.964000000     0.539000000    -6.422000000
H    -2.075000000    -0.110000000    -5.626000000
O    -5.582000000     1.366000000    -4.183000000
H    -4.702000000     1.709000000    -4.023000000
H    -5.486000000     0.811000000    -4.957000000
O     2.828000000    -4.032000000     2.629000000
H     3.300000000    -4.411000000     3.371000000
H     2.750000000    -3.103000000     2.844000000
O    -2.830000000     1.960000000    -4.270000000
H    -2.247000000     1.893000000    -5.026000000
H    -2.268000000     2.272000000    -3.561000000
O     2.712000000     0.571000000     6.531000000
H     3.553000000     0.133000000     6.397000000
H     2.059000000    -0.077000000     6.267000000
O     3.097000000    -2.403000000    -4.407000000
H     3.572000000    -1.602000000    -4.626000000
H     2.468000000    -2.511000000    -5.121000000
O    -2.669000000     4.348000000     4.828000000
H    -3.435000000     4.820000000     4.502000000
H    -2.789000000     3.452000000     4.512000000
O     0.012000000     3.932000000     3.478000000
H    -0.701000000     3.987000000     4.114000000
H     0.340000000     3.037000000     3.562000000
O     7.056000000    -0.571000000     2.633000000
H     6.405000000    -0.227000000     2.021000000
H     7.144000000     0.112000000     3.298000000
O     3.052000000    -1.519000000     3.572000000
H     3.759000000    -1.063000000     4.028000000
H     2.476000000    -0.819000000     3.263000000
O     3.938000000    -4.754000000    -3.184000000
H     4.835000000    -4.522000000    -2.942000000
H     3.631000000    -4.013000000    -3.706000000
O    -7.050000000     2.571000000    -0.079000000
H    -7.627000000     2.206000000    -0.750000000
H    -6.170000000     2.315000000    -0.354000000
O    -5.645000000    -1.505000000    -2.643000000
H    -5.154000000    -1.163000000    -3.390000000
H    -6.411000000    -1.927000000    -3.032000000
O    -0.473000000    -3.102000000     1.506000000
H     0.120000000    -3.608000000     0.950000000
H    -0.718000000    -2.347000000     0.970000000
O     4.311000000    -1.982000000    -1.072000000
H     4.793000000    -2.336000000    -1.820000000
H     4.798000000    -1.195000000    -0.825000000
O     5.223000000     0.326000000     0.357000000
H     4.470000000     0.434000000     0.938000000
H     5.200000000     1.096000000    -0.211000000
O     2.994000000     0.270000000    -2.720000000
H     3.317000000    -0.474000000    -2.211000000
H     2.512000000     0.802000000    -2.088000000
O    -3.455000000    -3.456000000    -5.098000000
H    -3.499000000    -3.856000000    -4.230000000
H    -3.001000000    -4.103000000    -5.638000000
O    -4.812000000    -1.053000000     0.023000000
H    -5.642000000    -0.976000000     0.494000000
H    -5.056000000    -1.009000000    -0.901000000
O    -3.316000000    -4.873000000    -2.623000000
H    -3.756000000    -4.315000000    -1.982000000
H    -2.385000000    -4.783000000    -2.420000000
