144
-2838.38949
O    -4.115000000    -5.563000000     3.505000000
H    -4.491000000    -5.458000000     4.379000000
H    -3.321000000    -5.029000000     3.520000000
O     3.769000000    -1.530000000    -5.270000000
H     4.556000000    -1.446000000    -4.732000000
H     3.150000000    -0.907000000    -4.888000000
O    -5.756000000    -0.769000000    -0.464000000
H    -5.506000000    -1.193000000     0.357000000
H    -5.346000000    -1.303000000    -1.144000000
O    -1.557000000     2.700000000     1.236000000
H    -0.830000000     2.439000000     1.800000000
H    -1.277000000     2.455000000     0.354000000
O     2.538000000     4.909000000     0.562000000
H     2.159000000     4.931000000    -0.317000000
H     2.835000000     4.006000000     0.672000000
O    -8.441000000    -0.991000000    -1.201000000
H    -8.446000000    -0.103000000    -1.559000000
H    -7.573000000    -1.085000000    -0.807000000
O     6.865000000     5.350000000    -1.349000000
H     6.737000000     5.072000000    -0.442000000
H     6.347000000     4.731000000    -1.864000000
O     8.291000000     2.592000000     1.539000000
H     7.489000000     2.631000000     1.018000000
H     8.932000000     2.179000000     0.961000000
O     0.752000000    -3.333000000     0.222000000
H     0.121000000    -2.783000000     0.686000000
H     1.547000000    -2.801000000     0.178000000
O     3.199000000    -1.173000000     3.211000000
H     3.606000000    -1.655000000     2.492000000
H     3.052000000    -0.296000000     2.859000000
O     0.566000000     5.509000000     4.150000000
H     1.061000000     5.204000000     4.911000000
H     0.419000000     4.721000000     3.628000000
O    -5.687000000    -2.587000000     1.439000000
H    -6.253000000    -2.617000000     2.210000000
H    -5.525000000    -3.506000000     1.225000000
O     2.132000000     0.240000000    -3.951000000
H     1.260000000     0.138000000    -3.571000000
H     2.324000000     1.174000000    -3.862000000
O     5.170000000    -0.305000000    -1.464000000
H     5.014000000     0.254000000    -2.225000000
H     4.496000000    -0.982000000    -1.523000000
O     7.255000000     1.559000000     3.923000000
H     7.763000000     2.299000000     4.257000000
H     7.463000000     1.528000000     2.989000000
O     1.306000000    -5.646000000     2.253000000
H     1.322000000    -4.947000000     1.600000000
H     1.485000000    -6.444000000     1.755000000
O    -1.896000000     3.299000000    -5.084000000
H    -2.728000000     3.754000000    -4.954000000
H    -1.829000000     3.189000000    -6.032000000
O     4.554000000     2.476000000     3.751000000
H     5.339000000     1.934000000     3.830000000
H     3.953000000     1.952000000     3.222000000
O     3.372000000     6.774000000     2.949000000
H     3.446000000     6.216000000     2.176000000
H     2.794000000     6.291000000     3.540000000
O    -3.694000000     2.107000000     3.042000000
H    -4.386000000     2.711000000     2.773000000
H    -3.003000000     2.229000000     2.390000000
O    -1.927000000    -4.236000000     1.407000000
H    -2.121000000    -3.820000000     2.248000000
H    -1.124000000    -4.732000000     1.566000000
O    -1.789000000     2.814000000    -1.943000000
H    -1.799000000     3.072000000    -2.865000000
H    -2.540000000     2.228000000    -1.851000000
O    -3.218000000    -2.306000000     3.042000000
H    -3.030000000    -1.532000000     3.573000000
H    -3.719000000    -1.970000000     2.298000000
O    -3.048000000    -0.078000000     4.599000000
H    -2.909000000    -0.035000000     5.545000000
H    -3.418000000     0.775000000     4.372000000
O     4.806000000     1.511000000    -3.521000000
H     5.500000000     2.085000000    -3.196000000
H     4.018000000     2.055000000    -3.500000000
O    -4.581000000     1.688000000    -1.138000000
H    -5.064000000     1.764000000    -1.961000000
H    -4.828000000     0.830000000    -0.794000000
O     0.857000000    -2.547000000     4.259000000
H     1.582000000    -2.861000000     3.717000000
H     1.073000000    -1.633000000     4.441000000
O    -4.131000000    -3.725000000    -4.903000000
H    -4.966000000    -3.599000000    -5.354000000
H    -4.362000000    -3.761000000    -3.975000000
O     2.511000000     2.962000000    -3.446000000
H     2.630000000     3.353000000    -2.581000000
H     1.837000000     3.500000000    -3.862000000
O     0.397000000     4.488000000    -1.268000000
H     0.698000000     4.634000000    -2.165000000
H    -0.479000000     4.115000000    -1.368000000
O     3.938000000    -2.575000000     0.838000000
H     4.215000000    -3.491000000     0.854000000
H     3.669000000    -2.421000000    -0.068000000
O     3.736000000     0.053000000     5.807000000
H     3.552000000    -0.745000000     5.312000000
H     3.492000000     0.764000000     5.215000000
O    -2.045000000    -2.344000000    -5.867000000
H    -2.986000000    -2.503000000    -5.805000000
H    -1.878000000    -1.642000000    -5.238000000
O    -5.588000000     0.923000000    -4.105000000
H    -6.317000000     0.312000000    -4.002000000
H    -5.824000000     1.454000000    -4.865000000
O    -1.453000000    -4.068000000     4.846000000
H    -0.648000000    -3.560000000     4.740000000
H    -2.143000000    -3.409000000     4.923000000
O     4.521000000     4.708000000     5.279000000
H     4.583000000     4.000000000     4.638000000
H     5.421000000     5.022000000     5.377000000
O     6.768000000     4.817000000     1.474000000
H     7.091000000     4.028000000     1.909000000
H     5.859000000     4.614000000     1.254000000
O     1.828000000    -3.690000000    -3.183000000
H     1.173000000    -4.014000000    -3.801000000
H     2.610000000    -4.211000000    -3.366000000
O     1.036000000     3.373000000     2.520000000
H     1.860000000     2.916000000     2.688000000
H     1.180000000     3.830000000     1.692000000
O    -4.741000000    -3.188000000    -2.196000000
H    -5.637000000    -3.399000000    -2.456000000
H    -4.672000000    -3.504000000    -1.295000000
O     2.822000000    -1.741000000    -1.615000000
H     2.178000000    -1.072000000    -1.848000000
H     2.472000000    -2.550000000    -1.990000000
O     0.758000000     0.478000000     6.194000000
H     0.765000000     1.276000000     6.723000000
H     0.859000000    -0.231000000     6.828000000
O    -2.432000000     0.293000000    -4.599000000
H    -2.125000000     1.105000000    -5.001000000
H    -3.330000000     0.483000000    -4.329000000
O    -0.109000000    -5.439000000    -1.367000000
H    -0.688000000    -4.935000000    -1.941000000
H     0.174000000    -4.811000000    -0.702000000
O     5.742000000     2.354000000     0.005000000
H     5.703000000     1.559000000    -0.527000000
H     4.832000000     2.647000000     0.063000000
O     0.496000000     4.389000000    -4.324000000
H    -0.239000000     3.875000000    -4.657000000
H     0.262000000     5.296000000    -4.518000000
O    -4.396000000    -4.796000000     0.204000000
H    -4.707000000    -5.701000000     0.232000000
H    -3.545000000    -4.821000000     0.642000000
O    -1.953000000    -4.443000000    -2.843000000
H    -2.418000000    -3.943000000    -2.171000000
H    -2.326000000    -4.137000000    -3.670000000
