144
-2796.94254
O     3.194000000     2.701000000     1.363000000
H     3.830000000     2.009000000     1.180000000
H     2.944000000     2.561000000     2.276000000
O     7.801000000    -0.412000000    -2.103000000
H     8.320000000    -1.188000000    -1.893000000
H     8.345000000     0.323000000    -1.819000000
O     4.348000000     5.101000000    -3.042000000
H     4.939000000     4.536000000    -3.540000000
H     3.592000000     4.547000000    -2.849000000
O    -5.929000000     0.468000000     1.981000000
H    -4.987000000     0.345000000     2.099000000
H    -6.167000000     1.128000000     2.633000000
O    -4.052000000    -2.218000000     2.783000000
H    -4.353000000    -3.030000000     3.190000000
H    -4.160000000    -2.366000000     1.843000000
O     6.441000000    -4.819000000    -1.575000000
H     6.650000000    -4.395000000    -2.407000000
H     6.185000000    -4.099000000    -0.998000000
O    -1.041000000    -1.518000000    -4.312000000
H    -0.345000000    -1.116000000    -4.831000000
H    -1.749000000    -1.669000000    -4.938000000
O     3.004000000    -4.760000000    -1.057000000
H     2.378000000    -4.206000000    -1.524000000
H     3.732000000    -4.175000000    -0.849000000
O     4.949000000    -3.042000000    -0.040000000
H     4.431000000    -2.264000000    -0.246000000
H     5.608000000    -2.734000000     0.582000000
O    -6.496000000     2.399000000    -0.243000000
H    -5.790000000     3.035000000    -0.353000000
H    -6.097000000     1.681000000     0.249000000
O    -4.221000000    -5.275000000     2.329000000
H    -4.659000000    -6.098000000     2.111000000
H    -4.263000000    -4.761000000     1.523000000
O    -2.389000000     3.484000000    -0.432000000
H    -1.841000000     2.716000000    -0.590000000
H    -2.414000000     3.569000000     0.521000000
O     4.379000000     3.287000000    -5.664000000
H     5.151000000     3.070000000    -5.142000000
H     3.795000000     2.537000000    -5.552000000
O     0.531000000     3.674000000     1.050000000
H     1.370000000     3.373000000     0.701000000
H     0.348000000     3.083000000     1.780000000
O    -0.475000000     5.480000000    -0.454000000
H    -1.301000000     5.035000000    -0.640000000
H    -0.048000000     4.929000000     0.202000000
O     1.084000000    -2.925000000    -2.344000000
H     0.725000000    -3.758000000    -2.651000000
H     0.505000000    -2.262000000    -2.721000000
O    -5.068000000     3.465000000    -3.134000000
H    -4.710000000     2.585000000    -3.015000000
H    -4.905000000     3.905000000    -2.300000000
O     2.588000000    -0.443000000     4.477000000
H     3.319000000    -0.716000000     5.031000000
H     1.947000000    -1.149000000     4.561000000
O     1.807000000    -5.234000000     3.798000000
H     2.508000000    -4.805000000     3.307000000
H     1.028000000    -5.115000000     3.255000000
O    -3.196000000     3.253000000     5.126000000
H    -3.456000000     2.381000000     5.422000000
H    -2.336000000     3.393000000     5.523000000
O    -2.467000000     3.582000000     2.349000000
H    -2.907000000     3.898000000     3.138000000
H    -1.732000000     3.063000000     2.675000000
O    -0.136000000     1.653000000     3.136000000
H     0.018000000     1.360000000     4.033000000
H     0.162000000     0.925000000     2.591000000
O     0.552000000    -2.512000000     4.782000000
H     0.123000000    -2.089000000     5.526000000
H    -0.137000000    -3.039000000     4.376000000
O    -2.869000000    -1.819000000    -2.192000000
H    -2.175000000    -1.691000000    -2.838000000
H    -2.754000000    -1.100000000    -1.570000000
O    -2.910000000    -0.757000000     5.233000000
H    -2.935000000    -1.001000000     4.308000000
H    -2.863000000    -1.591000000     5.700000000
O     4.925000000     0.631000000     0.986000000
H     5.356000000     0.037000000     1.601000000
H     4.529000000     0.054000000     0.333000000
O    -4.309000000     5.229000000    -0.922000000
H    -4.471000000     5.428000000     0.000000000
H    -3.491000000     4.732000000    -0.919000000
O    -4.394000000    -4.038000000    -2.458000000
H    -3.829000000    -4.783000000    -2.659000000
H    -3.805000000    -3.283000000    -2.457000000
O     4.444000000    -1.446000000    -3.348000000
H     4.496000000    -0.981000000    -2.513000000
H     3.598000000    -1.893000000    -3.321000000
O     2.725000000     3.646000000    -1.325000000
H     2.933000000     2.719000000    -1.435000000
H     2.962000000     3.839000000    -0.418000000
O     3.628000000    -4.837000000     1.808000000
H     2.958000000    -4.784000000     1.126000000
H     4.276000000    -4.179000000     1.559000000
O    -4.886000000    -3.408000000     0.211000000
H    -4.829000000    -3.771000000    -0.673000000
H    -5.804000000    -3.152000000     0.306000000
O    -7.432000000    -1.684000000    -2.164000000
H    -6.943000000    -1.168000000    -1.524000000
H    -8.191000000    -2.010000000    -1.679000000
O     5.696000000     1.670000000    -1.910000000
H     4.843000000     1.301000000    -2.137000000
H     6.294000000     0.922000000    -1.935000000
O    -0.493000000    -5.543000000     2.047000000
H    -1.081000000    -5.021000000     1.502000000
H    -0.206000000    -6.255000000     1.476000000
O    -7.030000000    -1.610000000     0.660000000
H    -6.690000000    -0.878000000     1.175000000
H    -7.952000000    -1.669000000     0.908000000
O     6.568000000    -1.501000000     1.655000000
H     7.396000000    -1.049000000     1.491000000
H     6.771000000    -2.129000000     2.348000000
O     2.847000000     1.336000000    -4.670000000
H     3.026000000     0.989000000    -3.795000000
H     1.911000000     1.188000000    -4.800000000
O     6.523000000     3.333000000    -4.018000000
H     7.471000000     3.301000000    -3.892000000
H     6.167000000     2.810000000    -3.300000000
O    -1.319000000     4.096000000    -4.448000000
H    -1.958000000     4.786000000    -4.273000000
H    -1.840000000     3.296000000    -4.508000000
O     3.284000000     2.319000000     4.086000000
H     2.908000000     1.446000000     3.973000000
H     2.571000000     2.841000000     4.453000000
O     6.602000000    -0.381000000    -4.771000000
H     5.695000000    -0.615000000    -4.577000000
H     7.060000000    -0.486000000    -3.937000000
O    -1.730000000    -3.932000000     0.388000000
H    -1.011000000    -3.303000000     0.338000000
H    -2.354000000    -3.637000000    -0.275000000
O     0.256000000     0.696000000    -5.793000000
H     0.601000000     1.415000000    -6.322000000
H    -0.081000000     0.069000000    -6.433000000
O     7.159000000     2.380000000     1.048000000
H     6.501000000     1.703000000     0.890000000
H     6.788000000     3.170000000     0.656000000
O    -4.218000000     0.859000000    -3.041000000
H    -4.474000000    -0.048000000    -3.206000000
H    -3.651000000     1.085000000    -3.779000000
O    -2.337000000     1.614000000    -4.872000000
H    -2.622000000     1.638000000    -5.785000000
H    -1.421000000     1.341000000    -4.913000000
O    -1.567000000     1.104000000     6.686000000
H    -1.884000000     0.487000000     6.026000000
H    -1.250000000     0.550000000     7.399000000
