144
-2834.25336
O    -3.243000000    -0.341000000     0.448000000
H    -2.361000000    -0.446000000     0.092000000
H    -3.620000000    -1.220000000     0.415000000
O     1.654000000     5.228000000     0.936000000
H     2.091000000     6.025000000     0.637000000
H     1.321000000     4.822000000     0.135000000
O    -2.792000000     3.466000000    -5.777000000
H    -3.311000000     4.060000000    -6.318000000
H    -3.440000000     2.940000000    -5.308000000
O     4.567000000     0.551000000     2.780000000
H     4.880000000     1.385000000     3.128000000
H     3.613000000     0.622000000     2.807000000
O    -4.274000000    -2.757000000    -0.015000000
H    -4.861000000    -2.393000000    -0.677000000
H    -4.431000000    -3.700000000    -0.048000000
O    -1.837000000     3.942000000    -2.751000000
H    -2.398000000     3.333000000    -2.271000000
H    -2.067000000     3.805000000    -3.671000000
O    -5.582000000    -2.286000000    -4.476000000
H    -6.483000000    -2.148000000    -4.766000000
H    -5.630000000    -3.046000000    -3.896000000
O    -1.628000000    -3.012000000     6.497000000
H    -2.165000000    -3.780000000     6.302000000
H    -1.404000000    -2.652000000     5.640000000
O    -0.956000000    -4.831000000     0.658000000
H    -0.776000000    -5.302000000    -0.156000000
H    -0.103000000    -4.761000000     1.088000000
O    -1.246000000    -1.850000000     4.164000000
H    -0.462000000    -1.423000000     3.819000000
H    -1.467000000    -2.511000000     3.509000000
O    -4.023000000    -0.287000000    -5.581000000
H    -3.094000000    -0.467000000    -5.720000000
H    -4.342000000    -1.042000000    -5.086000000
O     3.785000000     2.067000000    -4.605000000
H     3.393000000     1.770000000    -3.783000000
H     3.102000000     1.926000000    -5.261000000
O     1.534000000     5.489000000     5.319000000
H     1.555000000     4.648000000     5.776000000
H     0.804000000     5.410000000     4.705000000
O     2.340000000     3.691000000    -1.241000000
H     2.342000000     2.886000000    -1.759000000
H     3.265000000     3.866000000    -1.066000000
O     1.553000000     1.117000000    -6.496000000
H     1.167000000     0.244000000    -6.435000000
H     0.856000000     1.663000000    -6.860000000
O    -2.289000000    -4.233000000    -3.497000000
H    -1.910000000    -4.011000000    -4.348000000
H    -1.577000000    -4.093000000    -2.874000000
O    -1.033000000    -3.393000000    -6.078000000
H    -1.976000000    -3.559000000    -6.096000000
H    -0.955000000    -2.444000000    -6.174000000
O     4.665000000    -1.376000000     4.771000000
H     3.979000000    -1.924000000     4.389000000
H     4.834000000    -0.707000000     4.107000000
O    -3.205000000    -0.851000000     6.003000000
H    -3.919000000    -1.448000000     5.774000000
H    -2.431000000    -1.236000000     5.592000000
O     1.550000000    -1.436000000    -5.691000000
H     1.404000000    -2.271000000    -5.246000000
H     2.387000000    -1.124000000    -5.347000000
O    -3.613000000     1.480000000    -3.876000000
H    -3.903000000     1.114000000    -3.040000000
H    -4.019000000     0.919000000    -4.536000000
O    -3.746000000    -3.545000000    -5.957000000
H    -4.319000000    -4.201000000    -6.354000000
H    -4.336000000    -2.991000000    -5.445000000
O     2.208000000    -2.090000000    -2.360000000
H     1.977000000    -1.310000000    -1.855000000
H     3.027000000    -1.858000000    -2.798000000
O     2.543000000    -3.285000000     3.988000000
H     2.197000000    -3.558000000     4.838000000
H     2.123000000    -2.442000000     3.819000000
O    -0.955000000     1.735000000     4.619000000
H    -1.422000000     1.204000000     3.974000000
H    -0.047000000     1.733000000     4.318000000
O     3.788000000    -2.292000000     7.289000000
H     2.989000000    -2.084000000     6.803000000
H     4.499000000    -2.033000000     6.703000000
O    -1.460000000    -0.519000000    -6.669000000
H    -1.417000000     0.425000000    -6.820000000
H    -1.135000000    -0.906000000    -7.482000000
O     1.590000000    -1.142000000     6.314000000
H     0.917000000    -0.629000000     6.762000000
H     1.532000000    -0.866000000     5.400000000
O     3.969000000     1.247000000     7.290000000
H     3.239000000     0.647000000     7.443000000
H     3.601000000     1.934000000     6.734000000
O    -0.584000000     4.458000000     3.631000000
H    -1.325000000     5.032000000     3.824000000
H    -0.834000000     4.007000000     2.824000000
O     2.589000000     2.719000000     5.312000000
H     3.170000000     3.019000000     4.613000000
H     2.322000000     1.841000000     5.040000000
O     4.663000000    -0.240000000    -0.413000000
H     5.546000000    -0.567000000    -0.237000000
H     4.338000000     0.044000000     0.441000000
O     5.543000000     3.863000000     2.576000000
H     4.602000000     3.693000000     2.536000000
H     5.841000000     3.381000000     3.348000000
O    -4.109000000    -3.121000000     4.550000000
H    -3.875000000    -3.713000000     5.265000000
H    -3.360000000    -3.155000000     3.956000000
O     0.975000000    -3.921000000     6.410000000
H     0.305000000    -4.374000000     6.923000000
H     0.725000000    -2.998000000     6.452000000
O    -2.485000000    -3.290000000     2.338000000
H    -1.965000000    -3.950000000     1.881000000
H    -2.992000000    -2.863000000     1.648000000
O    -2.920000000     0.451000000     3.147000000
H    -3.031000000    -0.031000000     3.967000000
H    -3.254000000    -0.141000000     2.474000000
O    -2.394000000     3.356000000     1.024000000
H    -1.927000000     2.641000000     0.593000000
H    -3.209000000     2.960000000     1.332000000
O     3.052000000     1.311000000    -2.115000000
H     2.332000000     1.032000000    -1.549000000
H     3.698000000     0.608000000    -2.045000000
O    -0.012000000    -3.979000000    -2.250000000
H     0.529000000    -4.750000000    -2.423000000
H     0.561000000    -3.237000000    -2.442000000
O    -0.629000000     2.860000000    -7.193000000
H    -0.787000000     3.281000000    -8.038000000
H    -1.319000000     3.199000000    -6.623000000
O     3.418000000    -3.497000000    -0.308000000
H     3.172000000    -3.152000000    -1.167000000
H     4.355000000    -3.319000000    -0.238000000
O     0.248000000     5.393000000    -2.010000000
H    -0.524000000     4.867000000    -2.217000000
H     0.935000000     4.751000000    -1.831000000
O     3.880000000    -1.328000000    -4.301000000
H     4.547000000    -0.693000000    -4.564000000
H     4.072000000    -2.106000000    -4.825000000
O     1.760000000    -4.617000000     1.759000000
H     2.181000000    -4.221000000     2.523000000
H     2.107000000    -4.126000000     1.014000000
O     2.843000000     3.547000000     2.611000000
H     2.108000000     3.001000000     2.891000000
H     2.444000000     4.224000000     2.065000000
O    -4.871000000    -4.163000000    -2.629000000
H    -4.054000000    -3.832000000    -3.001000000
H    -4.996000000    -5.016000000    -3.046000000
O    -4.658000000     0.864000000    -1.470000000
H    -4.229000000     0.472000000    -0.709000000
H    -5.392000000     0.280000000    -1.659000000
