144
-2831.10841
O    -1.810000000     7.099000000     1.768000000
H    -1.459000000     6.224000000     1.598000000
H    -1.041000000     7.669000000     1.770000000
O     3.760000000     3.877000000     1.093000000
H     4.227000000     4.007000000     1.919000000
H     3.590000000     2.935000000     1.060000000
O     1.514000000     5.419000000    -2.424000000
H     1.764000000     4.583000000    -2.032000000
H     1.816000000     5.359000000    -3.331000000
O     3.299000000     6.497000000     0.404000000
H     3.420000000     6.839000000     1.290000000
H     3.028000000     5.588000000     0.533000000
O    -3.450000000     0.285000000     2.394000000
H    -4.288000000     0.391000000     2.845000000
H    -2.792000000     0.453000000     3.068000000
O     2.863000000    -6.435000000    -2.117000000
H     2.101000000    -5.922000000    -2.388000000
H     2.491000000    -7.206000000    -1.688000000
O    -4.134000000     1.333000000    -6.678000000
H    -3.824000000     2.084000000    -6.173000000
H    -4.850000000     1.681000000    -7.210000000
O    -2.163000000    -0.504000000    -6.688000000
H    -2.742000000     0.243000000    -6.840000000
H    -2.387000000    -0.805000000    -5.808000000
O    -1.895000000    -3.967000000    -1.388000000
H    -1.792000000    -3.379000000    -2.137000000
H    -2.631000000    -4.530000000    -1.626000000
O     6.130000000    -5.513000000    -1.523000000
H     5.353000000    -4.967000000    -1.402000000
H     6.397000000    -5.751000000    -0.635000000
O    -2.919000000    -1.945000000    -4.516000000
H    -3.399000000    -1.806000000    -3.700000000
H    -3.594000000    -1.941000000    -5.195000000
O    -4.986000000     4.544000000    -4.177000000
H    -5.300000000     4.313000000    -5.051000000
H    -4.944000000     3.709000000    -3.710000000
O     0.641000000     3.864000000     3.550000000
H     1.548000000     3.590000000     3.688000000
H     0.337000000     4.132000000     4.417000000
O     4.662000000     1.008000000     1.440000000
H     4.459000000     1.419000000     2.280000000
H     4.087000000     0.243000000     1.402000000
O     1.883000000    -4.823000000     4.485000000
H     1.021000000    -5.081000000     4.810000000
H     2.165000000    -4.127000000     5.078000000
O    -0.863000000     4.997000000    -1.254000000
H     0.011000000     5.337000000    -1.449000000
H    -0.894000000     4.950000000    -0.299000000
O     0.352000000     1.096000000    -3.547000000
H    -0.442000000     1.084000000    -3.012000000
H     0.052000000     1.368000000    -4.415000000
O     5.063000000    -5.771000000     1.457000000
H     4.110000000    -5.710000000     1.395000000
H     5.337000000    -4.914000000     1.784000000
O    -0.773000000     4.432000000     1.375000000
H    -1.531000000     3.989000000     1.756000000
H    -0.087000000     4.344000000     2.036000000
O    -2.669000000     2.128000000    -4.410000000
H    -3.473000000     2.020000000    -3.901000000
H    -2.204000000     2.842000000    -3.974000000
O     3.174000000     2.357000000     3.665000000
H     3.332000000     2.690000000     4.548000000
H     2.878000000     1.457000000     3.798000000
O    -0.475000000    -2.446000000    -3.474000000
H    -0.149000000    -1.546000000    -3.464000000
H    -1.314000000    -2.392000000    -3.931000000
O    -3.326000000     3.049000000     2.022000000
H    -4.026000000     3.243000000     1.399000000
H    -3.185000000     2.105000000     1.938000000
O    -0.906000000    -5.370000000     1.121000000
H    -1.136000000    -4.906000000     0.316000000
H    -0.023000000    -5.064000000     1.330000000
O    -1.595000000    -3.141000000     2.506000000
H    -2.363000000    -3.190000000     3.076000000
H    -1.554000000    -3.999000000     2.084000000
O     2.520000000    -0.342000000     4.007000000
H     1.608000000    -0.607000000     3.884000000
H     2.957000000    -0.606000000     3.197000000
O    -4.510000000    -1.954000000    -2.130000000
H    -5.401000000    -1.725000000    -1.867000000
H    -4.038000000    -2.066000000    -1.304000000
O     5.727000000    -1.919000000     5.007000000
H     5.323000000    -1.091000000     5.267000000
H     6.576000000    -1.920000000     5.451000000
O    -1.856000000     4.833000000    -3.992000000
H    -1.767000000     5.035000000    -3.060000000
H    -2.548000000     5.418000000    -4.299000000
O    -4.040000000    -4.517000000    -3.829000000
H    -3.955000000    -4.210000000    -4.732000000
H    -4.259000000    -3.731000000    -3.329000000
O     5.550000000    -2.035000000    -0.697000000
H     4.939000000    -2.750000000    -0.875000000
H     5.903000000    -2.231000000     0.171000000
O    -5.300000000    -3.541000000     1.269000000
H    -4.500000000    -3.139000000     0.930000000
H    -5.995000000    -3.206000000     0.702000000
O     0.423000000    -5.008000000    -2.840000000
H    -0.139000000    -5.248000000    -2.103000000
H     0.010000000    -4.228000000    -3.212000000
O     5.599000000    -3.104000000     1.862000000
H     5.698000000    -3.030000000     2.811000000
H     4.762000000    -2.679000000     1.675000000
O    -1.422000000     1.116000000     4.032000000
H    -0.876000000     1.578000000     3.396000000
H    -0.914000000     0.339000000     4.264000000
O    -6.757000000    -0.513000000    -0.699000000
H    -7.185000000     0.004000000    -1.382000000
H    -6.456000000     0.135000000    -0.062000000
O     7.646000000     0.303000000     1.513000000
H     6.841000000     0.705000000     1.189000000
H     7.924000000     0.869000000     2.233000000
O     1.594000000    -4.960000000     1.746000000
H     1.805000000    -4.684000000     2.637000000
H     1.960000000    -4.273000000     1.189000000
O    -6.310000000     2.672000000    -0.484000000
H    -6.903000000     3.405000000    -0.649000000
H    -6.687000000     2.224000000     0.274000000
O     3.276000000     0.110000000    -3.714000000
H     3.112000000    -0.825000000    -3.839000000
H     2.405000000     0.499000000    -3.643000000
O     3.840000000    -4.099000000    -1.290000000
H     3.333000000    -3.718000000    -0.573000000
H     3.391000000    -4.921000000    -1.490000000
O     3.170000000    -0.938000000     6.564000000
H     2.378000000    -0.608000000     6.989000000
H     2.987000000    -0.863000000     5.627000000
O    -0.054000000    -1.312000000     3.691000000
H    -0.431000000    -1.753000000     2.929000000
H    -0.060000000    -1.978000000     4.379000000
O     4.682000000     1.707000000    -1.328000000
H     5.278000000     1.055000000    -1.697000000
H     4.848000000     1.677000000    -0.386000000
O     3.593000000    -2.579000000    -4.292000000
H     3.444000000    -2.944000000    -3.419000000
H     4.524000000    -2.730000000    -4.459000000
O     2.280000000     2.773000000    -2.363000000
H     3.094000000     2.295000000    -2.202000000
H     1.589000000     2.132000000    -2.197000000
O    -3.245000000    -1.843000000     0.346000000
H    -2.298000000    -1.868000000     0.203000000
H    -3.355000000    -1.288000000     1.118000000
O    -4.843000000     2.177000000    -2.940000000
H    -5.246000000     2.460000000    -2.119000000
H    -5.398000000     1.459000000    -3.244000000
