144
-2824.40323
O    -2.599000000     2.916000000     3.955000000
H    -2.790000000     3.445000000     4.730000000
H    -2.512000000     2.024000000     4.291000000
O     2.935000000     3.195000000     1.169000000
H     2.079000000     2.987000000     0.794000000
H     2.937000000     2.756000000     2.019000000
O     6.956000000    -0.548000000    -4.459000000
H     7.417000000    -1.323000000    -4.138000000
H     6.148000000    -0.520000000    -3.946000000
O     6.684000000     2.227000000    -1.809000000
H     6.630000000     1.398000000    -1.334000000
H     6.015000000     2.779000000    -1.404000000
O    -5.300000000     2.516000000     3.206000000
H    -5.298000000     2.331000000     4.146000000
H    -4.445000000     2.213000000     2.901000000
O    -0.198000000    -3.084000000    -2.746000000
H    -1.011000000    -3.049000000    -2.241000000
H     0.429000000    -3.508000000    -2.160000000
O    -2.483000000    -3.295000000    -1.292000000
H    -3.229000000    -2.713000000    -1.438000000
H    -2.668000000    -4.062000000    -1.835000000
O    -4.941000000    -0.214000000    -4.186000000
H    -5.255000000    -0.839000000    -3.533000000
H    -4.150000000    -0.617000000    -4.543000000
O     1.888000000    -0.073000000     7.191000000
H     1.513000000    -0.682000000     6.553000000
H     1.200000000     0.577000000     7.334000000
O     5.153000000     4.091000000    -0.143000000
H     4.425000000     3.722000000     0.357000000
H     5.678000000     4.557000000     0.508000000
O     0.293000000    -0.358000000    -6.790000000
H    -0.116000000    -1.215000000    -6.672000000
H     1.225000000    -0.514000000    -6.638000000
O    -0.280000000     3.676000000     2.755000000
H     0.468000000     3.078000000     2.765000000
H    -0.986000000     3.183000000     3.173000000
O     5.639000000     0.351000000    -0.098000000
H     5.144000000    -0.317000000    -0.573000000
H     5.028000000     0.676000000     0.563000000
O     1.076000000    -3.657000000     2.911000000
H     0.573000000    -3.541000000     3.717000000
H     1.841000000    -4.166000000     3.177000000
O    -1.949000000     4.887000000    -1.007000000
H    -1.699000000     5.808000000    -1.080000000
H    -2.313000000     4.807000000    -0.125000000
O     0.370000000     2.806000000    -3.370000000
H     0.649000000     2.187000000    -4.045000000
H     0.261000000     3.635000000    -3.836000000
O     5.646000000    -6.054000000     0.397000000
H     6.041000000    -6.065000000     1.269000000
H     5.274000000    -5.175000000     0.314000000
O    -2.801000000     4.601000000     1.595000000
H    -3.432000000     4.167000000     2.169000000
H    -1.946000000     4.346000000     1.943000000
O    -7.594000000     2.073000000     1.581000000
H    -6.772000000     2.320000000     2.004000000
H    -7.778000000     1.193000000     1.910000000
O     1.367000000     1.913000000     4.264000000
H     0.742000000     2.190000000     4.933000000
H     2.096000000     1.538000000     4.758000000
O    -2.959000000    -1.705000000    -4.932000000
H    -2.674000000    -2.009000000    -5.793000000
H    -3.171000000    -2.506000000    -4.453000000
O     7.752000000    -2.978000000     1.196000000
H     8.034000000    -2.080000000     1.372000000
H     6.812000000    -2.905000000     1.031000000
O    -0.920000000    -2.777000000     0.669000000
H    -0.484000000    -1.980000000     0.368000000
H    -1.501000000    -3.018000000    -0.053000000
O    -1.709000000    -1.964000000     3.261000000
H    -2.547000000    -2.394000000     3.090000000
H    -1.214000000    -2.073000000     2.449000000
O     3.304000000    -0.779000000     3.907000000
H     2.397000000    -1.082000000     3.957000000
H     3.422000000    -0.527000000     2.991000000
O    -5.062000000    -2.566000000    -0.904000000
H    -5.730000000    -1.928000000    -1.157000000
H    -5.131000000    -2.619000000     0.050000000
O     5.011000000    -2.651000000     3.388000000
H     4.314000000    -2.014000000     3.546000000
H     5.756000000    -2.321000000     3.889000000
O    -2.819000000     3.206000000    -3.041000000
H    -2.045000000     2.645000000    -3.081000000
H    -2.572000000     3.914000000    -2.446000000
O    -2.913000000     5.037000000    -5.559000000
H    -2.693000000     4.642000000    -6.403000000
H    -2.605000000     4.403000000    -4.911000000
O     4.434000000    -0.344000000    -3.009000000
H     4.268000000    -0.854000000    -2.217000000
H     4.238000000     0.559000000    -2.759000000
O    -6.093000000    -2.367000000     1.508000000
H    -6.658000000    -1.761000000     1.987000000
H    -6.696000000    -2.887000000     0.977000000
O    -0.017000000    -3.098000000    -5.483000000
H     0.914000000    -3.308000000    -5.406000000
H    -0.363000000    -3.216000000    -4.598000000
O     6.708000000     2.181000000     2.332000000
H     7.197000000     2.315000000     3.144000000
H     5.806000000     2.034000000     2.618000000
O     5.072000000    -3.356000000     0.418000000
H     4.798000000    -3.510000000     1.322000000
H     4.554000000    -2.603000000     0.135000000
O     3.799000000    -4.996000000     3.103000000
H     4.562000000    -5.379000000     2.670000000
H     4.059000000    -4.094000000     3.293000000
O    -2.488000000     0.493000000     5.165000000
H    -1.942000000    -0.188000000     4.772000000
H    -3.345000000     0.080000000     5.271000000
O    -7.070000000    -0.850000000    -1.552000000
H    -7.453000000    -0.746000000    -2.423000000
H    -7.489000000    -0.170000000    -1.024000000
O     7.978000000    -0.320000000     1.154000000
H     7.143000000    -0.180000000     0.707000000
H     7.968000000     0.302000000     1.881000000
O     1.374000000    -3.977000000    -0.727000000
H     0.685000000    -3.862000000    -0.073000000
H     2.165000000    -3.646000000    -0.303000000
O     2.582000000    -3.040000000    -3.986000000
H     2.967000000    -2.167000000    -4.060000000
H     2.281000000    -3.092000000    -3.079000000
O     3.990000000     1.106000000     5.844000000
H     3.268000000     0.928000000     6.447000000
H     4.061000000     0.312000000     5.315000000
O     0.496000000    -1.297000000     4.996000000
H    -0.150000000    -1.640000000     4.378000000
H     0.207000000    -1.620000000     5.849000000
O     3.283000000     2.037000000    -2.379000000
H     3.422000000     2.953000000    -2.619000000
H     2.654000000     2.072000000    -1.657000000
O    -2.057000000    -4.643000000     2.369000000
H    -2.274000000    -5.380000000     1.797000000
H    -1.472000000    -4.097000000     1.845000000
O     2.916000000     1.276000000    -5.605000000
H     2.841000000     0.496000000    -6.154000000
H     3.444000000     0.994000000    -4.858000000
O     4.588000000     3.077000000     3.912000000
H     4.309000000     2.574000000     4.677000000
H     5.370000000     3.545000000     4.204000000
O     0.902000000     3.636000000    -0.983000000
H     0.171000000     4.211000000    -0.758000000
H     0.569000000     3.093000000    -1.697000000
O    -5.349000000     2.622000000    -3.764000000
H    -4.475000000     2.951000000    -3.556000000
H    -5.261000000     1.670000000    -3.730000000
