144
-2824.23194
O     0.969000000     0.241000000    -5.004000000
H     0.133000000    -0.138000000    -4.735000000
H     1.221000000     0.809000000    -4.276000000
O     2.544000000     1.179000000     6.976000000
H     2.936000000     0.373000000     7.311000000
H     2.020000000     0.897000000     6.225000000
O     5.137000000     5.370000000     0.839000000
H     5.782000000     4.809000000     0.407000000
H     5.474000000     5.480000000     1.728000000
O     1.854000000     2.222000000    -3.131000000
H     2.632000000     2.229000000    -2.573000000
H     1.837000000     3.092000000    -3.529000000
O     4.369000000     2.225000000     1.248000000
H     3.548000000     2.664000000     1.470000000
H     4.689000000     2.690000000     0.475000000
O    -0.596000000     6.488000000     4.443000000
H     0.229000000     6.199000000     4.833000000
H    -0.761000000     5.861000000     3.739000000
O    -2.551000000     0.876000000    -2.345000000
H    -3.251000000     1.450000000    -2.034000000
H    -1.849000000     0.984000000    -1.704000000
O     2.953000000    -0.645000000     4.484000000
H     3.078000000    -0.416000000     3.563000000
H     2.119000000    -0.240000000     4.720000000
O    -2.775000000    -4.534000000    -3.305000000
H    -3.443000000    -5.152000000    -3.602000000
H    -1.963000000    -4.850000000    -3.701000000
O     1.317000000    -2.109000000     1.608000000
H     0.798000000    -1.452000000     1.145000000
H     1.921000000    -2.447000000     0.946000000
O    -0.598000000     2.271000000     7.138000000
H    -0.201000000     1.895000000     7.923000000
H    -1.018000000     1.529000000     6.703000000
O    -1.389000000    -2.562000000     2.611000000
H    -0.523000000    -2.970000000     2.608000000
H    -1.227000000    -1.655000000     2.352000000
O     4.220000000     2.058000000     4.491000000
H     3.927000000     1.541000000     3.741000000
H     3.736000000     1.698000000     5.234000000
O     0.443000000     4.789000000     7.200000000
H     0.736000000     4.811000000     6.289000000
H     0.244000000     3.867000000     7.365000000
O     2.354000000     6.736000000     3.832000000
H     2.321000000     6.519000000     2.900000000
H     3.000000000     6.131000000     4.196000000
O    -4.155000000    -3.614000000     3.138000000
H    -3.215000000    -3.438000000     3.133000000
H    -4.346000000    -3.871000000     4.040000000
O    -1.588000000    -5.666000000    -0.660000000
H    -2.401000000    -5.427000000    -0.216000000
H    -1.604000000    -5.164000000    -1.475000000
O    -1.823000000    -1.005000000     5.188000000
H    -1.953000000    -1.397000000     6.051000000
H    -1.957000000    -1.727000000     4.574000000
O     4.307000000     1.994000000    -1.903000000
H     4.839000000     2.334000000    -2.623000000
H     4.720000000     1.162000000    -1.672000000
O    -1.654000000     2.237000000    -5.835000000
H    -2.453000000     1.725000000    -5.713000000
H    -0.951000000     1.660000000    -5.537000000
O     3.217000000    -0.001000000    -6.161000000
H     2.418000000     0.181000000    -5.666000000
H     3.845000000     0.652000000    -5.852000000
O     6.679000000     2.352000000     3.332000000
H     5.795000000     2.168000000     3.650000000
H     6.780000000     1.789000000     2.565000000
O     1.555000000    -3.085000000    -4.041000000
H     2.439000000    -3.173000000    -4.396000000
H     1.209000000    -2.293000000    -4.452000000
O     4.037000000     4.725000000     5.030000000
H     4.060000000     3.815000000     4.735000000
H     4.483000000     4.714000000     5.877000000
O     0.852000000     7.548000000     0.317000000
H     0.921000000     6.671000000     0.695000000
H     1.749000000     7.883000000     0.326000000
O     4.474000000    -3.334000000    -4.065000000
H     4.984000000    -3.506000000    -3.274000000
H     5.013000000    -2.725000000    -4.570000000
O     6.602000000     0.346000000    -2.977000000
H     7.271000000    -0.186000000    -3.407000000
H     6.038000000    -0.289000000    -2.535000000
O    -4.479000000     2.519000000    -0.618000000
H    -4.199000000     2.950000000     0.189000000
H    -5.111000000     3.123000000    -1.006000000
O    -2.010000000     4.336000000     2.161000000
H    -1.838000000     4.491000000     1.233000000
H    -1.316000000     3.738000000     2.437000000
O    -4.192000000    -2.270000000    -4.220000000
H    -3.682000000    -3.000000000    -3.869000000
H    -4.676000000    -1.931000000    -3.467000000
O    -2.093000000    -0.575000000    -4.488000000
H    -2.740000000    -1.268000000    -4.615000000
H    -2.272000000    -0.237000000    -3.610000000
O     2.308000000     5.596000000     1.457000000
H     3.218000000     5.588000000     1.160000000
H     2.128000000     4.688000000     1.701000000
O     3.493000000    -2.997000000    -0.260000000
H     4.143000000    -3.466000000     0.262000000
H     3.325000000    -3.572000000    -1.007000000
O     0.451000000    -5.372000000     1.277000000
H    -0.163000000    -5.604000000     0.579000000
H     0.651000000    -4.448000000     1.123000000
O     0.544000000     0.372000000     5.023000000
H    -0.242000000    -0.173000000     5.068000000
H     0.391000000     0.950000000     4.276000000
O    -4.557000000     3.365000000     2.706000000
H    -3.927000000     4.031000000     2.431000000
H    -4.050000000     2.554000000     2.740000000
O     1.017000000     4.269000000     4.541000000
H     1.927000000     3.999000000     4.421000000
H     0.528000000     3.758000000     3.895000000
O    -3.825000000    -5.293000000     1.106000000
H    -4.502000000    -5.912000000     1.377000000
H    -4.012000000    -4.499000000     1.607000000
O     5.218000000    -0.906000000    -0.705000000
H     6.129000000    -1.170000000    -0.580000000
H     4.728000000    -1.728000000    -0.701000000
O    -5.657000000    -4.002000000    -0.468000000
H    -6.050000000    -4.350000000    -1.268000000
H    -5.118000000    -4.719000000    -0.134000000
O     1.444000000    -4.656000000    -1.954000000
H     0.816000000    -5.315000000    -2.251000000
H     1.462000000    -4.008000000    -2.659000000
O    -1.725000000     4.681000000    -0.714000000
H    -1.724000000     4.116000000    -1.487000000
H    -2.504000000     5.227000000    -0.818000000
O    -3.095000000     3.263000000     5.914000000
H    -3.622000000     4.061000000     5.950000000
H    -2.199000000     3.572000000     5.782000000
O    -0.414000000    -5.515000000    -4.370000000
H    -0.415000000    -6.111000000    -5.119000000
H     0.400000000    -5.020000000    -4.458000000
O     3.798000000    -0.274000000     1.985000000
H     3.762000000    -0.826000000     1.204000000
H     4.032000000     0.593000000     1.656000000
O    -4.905000000    -1.629000000    -1.317000000
H    -4.056000000    -1.579000000    -0.879000000
H    -5.283000000    -2.455000000    -1.015000000
O    -5.878000000     0.401000000     0.465000000
H    -6.053000000    -0.110000000    -0.325000000
H    -5.546000000     1.238000000     0.140000000
O     6.674000000     0.179000000     1.394000000
H     5.820000000     0.227000000     0.965000000
H     7.258000000     0.677000000     0.822000000
