144
-2811.91594
O    -6.751000000     1.283000000    -1.504000000
H    -6.841000000     0.681000000    -0.766000000
H    -7.598000000     1.726000000    -1.557000000
O     1.243000000     3.316000000     5.780000000
H     1.963000000     3.590000000     6.348000000
H     1.474000000     2.427000000     5.512000000
O     2.826000000     6.316000000    -0.259000000
H     2.079000000     6.600000000    -0.785000000
H     2.435000000     5.843000000     0.476000000
O     0.566000000     3.166000000    -4.936000000
H    -0.351000000     2.901000000    -4.862000000
H     1.040000000     2.348000000    -5.087000000
O     8.512000000    -1.502000000     1.724000000
H     8.147000000    -2.228000000     1.219000000
H     7.747000000    -1.053000000     2.084000000
O    -5.568000000    -3.201000000     0.298000000
H    -5.471000000    -3.450000000    -0.621000000
H    -5.469000000    -4.023000000     0.780000000
O     6.154000000     3.271000000     1.848000000
H     5.699000000     2.766000000     1.174000000
H     6.560000000     2.610000000     2.408000000
O    -0.886000000    -3.286000000     5.554000000
H    -0.972000000    -2.385000000     5.244000000
H     0.045000000    -3.383000000     5.754000000
O     4.241000000    -1.498000000    -0.963000000
H     3.437000000    -2.016000000    -0.996000000
H     4.434000000    -1.415000000    -0.029000000
O    -3.856000000     0.652000000    -7.414000000
H    -3.204000000     1.147000000    -6.917000000
H    -3.397000000     0.384000000    -8.210000000
O     3.118000000     2.855000000     2.821000000
H     3.592000000     3.196000000     3.580000000
H     3.502000000     1.991000000     2.667000000
O     5.904000000    -0.728000000     1.922000000
H     5.162000000    -0.135000000     1.806000000
H     5.571000000    -1.419000000     2.494000000
O     1.789000000    -3.190000000     6.543000000
H     1.516000000    -3.648000000     7.338000000
H     2.089000000    -2.335000000     6.850000000
O    -0.633000000     3.393000000     0.314000000
H    -0.225000000     2.565000000     0.062000000
H    -1.314000000     3.535000000    -0.344000000
O     1.657000000     0.770000000    -5.252000000
H     1.416000000     0.102000000    -4.610000000
H     2.590000000     0.623000000    -5.412000000
O     6.990000000    -0.212000000    -0.667000000
H     6.553000000     0.635000000    -0.750000000
H     6.769000000    -0.511000000     0.215000000
O     3.379000000     3.218000000    -1.960000000
H     2.454000000     3.453000000    -1.883000000
H     3.638000000     3.545000000    -2.822000000
O    -1.710000000    -0.165000000     5.384000000
H    -2.152000000    -0.551000000     4.629000000
H    -1.600000000     0.757000000     5.152000000
O    -4.513000000     5.033000000    -1.097000000
H    -5.269000000     5.563000000    -1.354000000
H    -4.347000000     5.279000000    -0.187000000
O    -2.143000000     1.906000000    -5.562000000
H    -2.916000000     1.943000000    -4.998000000
H    -2.184000000     2.711000000    -6.078000000
O    -0.911000000    -1.184000000    -5.470000000
H    -0.170000000    -0.688000000    -5.123000000
H    -1.089000000    -1.847000000    -4.803000000
O     4.749000000     2.567000000     5.265000000
H     4.094000000     1.880000000     5.390000000
H     5.561000000     2.188000000     5.600000000
O    -5.579000000    -2.997000000    -4.679000000
H    -5.795000000    -2.362000000    -3.997000000
H    -4.849000000    -2.599000000    -5.155000000
O    -6.847000000     1.855000000     1.728000000
H    -5.983000000     1.932000000     1.324000000
H    -7.193000000     1.026000000     1.396000000
O     4.562000000    -4.548000000     1.948000000
H     5.460000000    -4.487000000     1.623000000
H     4.464000000    -3.791000000     2.526000000
O     1.466000000     4.642000000     1.816000000
H     0.770000000     4.345000000     1.229000000
H     1.920000000     3.840000000     2.075000000
O     2.254000000     0.867000000     5.426000000
H     2.102000000     0.214000000     6.109000000
H     2.321000000     0.359000000     4.618000000
O    -1.055000000    -4.728000000    -0.587000000
H    -1.115000000    -5.588000000    -1.003000000
H    -1.810000000    -4.694000000     0.001000000
O    -2.309000000     4.054000000    -2.143000000
H    -3.025000000     4.431000000    -1.631000000
H    -2.532000000     4.257000000    -3.052000000
O     4.181000000    -2.348000000     3.517000000
H     4.422000000    -2.220000000     4.435000000
H     3.559000000    -1.643000000     3.332000000
O     1.624000000    -1.577000000    -3.676000000
H     1.890000000    -1.442000000    -2.766000000
H     1.081000000    -2.366000000    -3.652000000
O    -3.354000000    -2.456000000    -6.044000000
H    -2.951000000    -2.978000000    -5.350000000
H    -2.721000000    -1.760000000    -6.218000000
O     4.748000000    -1.905000000     6.086000000
H     5.297000000    -2.664000000     6.285000000
H     4.694000000    -1.425000000     6.912000000
O    -0.608000000     2.186000000     3.791000000
H    -0.049000000     2.391000000     4.541000000
H    -0.068000000     2.389000000     3.027000000
O    -2.833000000    -1.663000000     3.369000000
H    -3.789000000    -1.673000000     3.331000000
H    -2.569000000    -2.496000000     2.978000000
O    -6.756000000    -0.818000000     0.313000000
H    -6.212000000    -1.599000000     0.203000000
H    -7.615000000    -1.158000000     0.563000000
O     2.541000000    -4.762000000     4.351000000
H     2.299000000    -4.158000000     5.053000000
H     3.163000000    -4.270000000     3.815000000
O    -4.122000000     1.983000000     0.880000000
H    -3.652000000     2.814000000     0.942000000
H    -3.433000000     1.324000000     0.793000000
O     0.824000000     4.762000000    -2.752000000
H    -0.044000000     4.725000000    -2.351000000
H     0.765000000     4.172000000    -3.504000000
O     4.246000000     0.459000000    -3.050000000
H     4.173000000    -0.187000000    -2.347000000
H     4.289000000     1.302000000    -2.597000000
O     1.106000000    -2.913000000    -0.925000000
H     0.698000000    -2.393000000    -0.232000000
H     0.513000000    -3.654000000    -1.049000000
O    -1.516000000    -3.711000000    -4.414000000
H    -0.722000000    -4.115000000    -4.764000000
H    -1.867000000    -4.360000000    -3.804000000
O     5.170000000     1.867000000    -0.274000000
H     4.491000000     1.358000000     0.168000000
H     4.690000000     2.439000000    -0.873000000
O     0.678000000    -6.211000000     2.944000000
H     0.335000000    -6.879000000     3.538000000
H     1.267000000    -5.687000000     3.488000000
O    -5.434000000    -4.345000000    -2.202000000
H    -5.355000000    -5.295000000    -2.288000000
H    -5.528000000    -4.030000000    -3.101000000
O    -4.642000000     2.342000000    -4.520000000
H    -4.431000000     2.853000000    -3.739000000
H    -5.085000000     1.563000000    -4.184000000
O    -2.116000000    -4.892000000     2.176000000
H    -1.237000000    -4.739000000     2.525000000
H    -2.186000000    -5.844000000     2.112000000
O    -6.365000000    -0.551000000    -3.614000000
H    -7.301000000    -0.700000000    -3.746000000
H    -6.320000000     0.035000000    -2.858000000
