144
-2842.18853
O    -3.322000000    -2.957000000    -1.630000000
H    -2.693000000    -2.877000000    -0.913000000
H    -3.384000000    -3.898000000    -1.790000000
O     2.547000000     6.172000000     2.157000000
H     1.826000000     5.960000000     2.749000000
H     2.591000000     7.129000000     2.167000000
O    -0.901000000     2.110000000     6.468000000
H    -1.572000000     2.698000000     6.119000000
H    -1.388000000     1.483000000     7.003000000
O     3.182000000    -0.827000000    -1.662000000
H     2.886000000    -0.796000000    -0.753000000
H     2.412000000    -0.579000000    -2.174000000
O    -0.562000000     4.757000000    -1.592000000
H     0.318000000     5.126000000    -1.662000000
H    -0.670000000     4.245000000    -2.394000000
O    -6.194000000     0.495000000    -3.602000000
H    -5.707000000     1.312000000    -3.708000000
H    -5.518000000    -0.180000000    -3.537000000
O     1.334000000    -4.147000000     5.269000000
H     0.378000000    -4.140000000     5.228000000
H     1.574000000    -5.058000000     5.097000000
O     1.222000000    -4.380000000     2.147000000
H     1.364000000    -4.196000000     1.218000000
H     1.869000000    -3.839000000     2.600000000
O     0.929000000     5.166000000     6.569000000
H     0.932000000     4.642000000     5.768000000
H     0.468000000     5.970000000     6.328000000
O    -0.361000000     1.299000000    -7.252000000
H    -0.727000000     0.812000000    -7.991000000
H    -0.824000000     0.958000000    -6.487000000
O    -1.266000000    -1.579000000     4.111000000
H    -0.527000000    -0.990000000     3.958000000
H    -1.095000000    -2.331000000     3.544000000
O    -5.070000000     1.711000000    -0.092000000
H    -4.853000000     2.056000000    -0.958000000
H    -5.447000000     0.848000000    -0.265000000
O    -2.951000000     1.324000000     3.345000000
H    -2.893000000     2.173000000     2.908000000
H    -3.624000000     0.849000000     2.857000000
O     1.450000000    -0.853000000     5.997000000
H     1.695000000    -0.343000000     6.769000000
H     1.995000000    -0.499000000     5.294000000
O     2.035000000     1.607000000    -3.253000000
H     1.341000000     2.147000000    -3.630000000
H     2.248000000     2.036000000    -2.424000000
O     0.104000000    -4.616000000    -4.646000000
H     0.310000000    -5.201000000    -3.917000000
H     0.107000000    -3.741000000    -4.259000000
O    -2.924000000    -0.748000000     1.378000000
H    -2.397000000    -1.106000000     2.093000000
H    -2.282000000    -0.433000000     0.742000000
O    -2.342000000     2.818000000    -3.937000000
H    -2.421000000     1.917000000    -4.252000000
H    -1.424000000     3.044000000    -4.087000000
O     3.554000000    -2.491000000    -5.043000000
H     2.648000000    -2.475000000    -4.736000000
H     4.042000000    -2.009000000    -4.375000000
O     5.123000000     1.324000000     1.642000000
H     4.378000000     1.692000000     1.168000000
H     5.011000000     1.631000000     2.542000000
O    -0.218000000     5.916000000     3.183000000
H    -0.162000000     5.003000000     3.465000000
H    -0.983000000     5.943000000     2.608000000
O    -4.211000000    -1.311000000    -4.007000000
H    -4.387000000    -2.194000000    -4.332000000
H    -3.435000000    -1.410000000    -3.455000000
O     3.549000000    -6.619000000     1.026000000
H     4.107000000    -7.135000000     1.607000000
H     3.707000000    -5.711000000     1.285000000
O    -2.791000000     3.164000000     1.026000000
H    -2.315000000     3.119000000     0.196000000
H    -3.589000000     2.658000000     0.872000000
O     2.431000000     5.043000000    -2.679000000
H     3.257000000     4.609000000    -2.465000000
H     2.510000000     5.913000000    -2.288000000
O     3.127000000     1.116000000     5.303000000
H     4.003000000     1.472000000     5.154000000
H     2.710000000     1.137000000     4.442000000
O     4.973000000    -1.118000000     5.970000000
H     4.455000000    -0.432000000     5.549000000
H     4.359000000    -1.843000000     6.090000000
O    -5.401000000    -1.177000000    -0.465000000
H    -4.923000000    -1.340000000    -1.279000000
H    -4.718000000    -1.006000000     0.184000000
O     1.596000000     2.234000000     7.611000000
H     2.184000000     2.717000000     7.031000000
H     0.908000000     1.904000000     7.034000000
O     2.972000000     3.451000000     1.684000000
H     2.399000000     2.987000000     2.294000000
H     2.981000000     4.353000000     2.004000000
O     0.565000000     3.613000000     4.394000000
H     0.947000000     2.826000000     4.006000000
H    -0.066000000     3.282000000     5.034000000
O     4.570000000    -3.837000000     1.830000000
H     4.621000000    -3.150000000     1.165000000
H     4.115000000    -3.426000000     2.565000000
O     5.539000000     2.500000000     4.625000000
H     6.448000000     2.345000000     4.883000000
H     5.478000000     3.450000000     4.526000000
O    -4.600000000     3.021000000    -2.529000000
H    -3.808000000     3.182000000    -3.041000000
H    -5.230000000     3.666000000    -2.852000000
O     4.203000000    -1.158000000     1.192000000
H     4.693000000    -0.340000000     1.268000000
H     3.703000000    -1.214000000     2.006000000
O    -2.884000000     5.687000000     1.874000000
H    -3.570000000     5.650000000     2.541000000
H    -2.734000000     4.773000000     1.633000000
O     3.021000000    -2.530000000     3.687000000
H     2.614000000    -3.079000000     4.358000000
H     2.529000000    -1.710000000     3.717000000
O    -1.536000000    -3.946000000     2.239000000
H    -0.699000000    -4.397000000     2.351000000
H    -1.733000000    -4.036000000     1.307000000
O    -2.260000000     6.793000000    -0.474000000
H    -1.694000000     6.114000000    -0.842000000
H    -2.507000000     6.458000000     0.388000000
O     0.260000000     3.962000000    -4.114000000
H     1.113000000     4.342000000    -3.903000000
H    -0.101000000     4.542000000    -4.785000000
O    -1.571000000    -4.672000000     5.032000000
H    -2.094000000    -4.065000000     5.557000000
H    -1.786000000    -4.451000000     4.126000000
O     3.110000000    -3.990000000    -1.471000000
H     3.737000000    -4.698000000    -1.324000000
H     3.644000000    -3.256000000    -1.775000000
O    -1.260000000    -4.861000000    -0.668000000
H    -1.730000000    -5.680000000    -0.823000000
H    -0.616000000    -4.817000000    -1.376000000
O    -0.317000000    -2.285000000     7.438000000
H    -0.552000000    -1.472000000     7.886000000
H     0.357000000    -2.026000000     6.810000000
O     0.894000000    -1.866000000    -5.175000000
H     1.234000000    -1.736000000    -6.060000000
H     0.363000000    -1.088000000    -5.005000000
O     1.193000000    -5.600000000    -2.369000000
H     1.024000000    -6.209000000    -1.649000000
H     1.931000000    -5.071000000    -2.066000000
O     3.212000000     2.278000000    -0.716000000
H     2.709000000     2.272000000     0.099000000
H     3.800000000     3.027000000    -0.629000000
O    -2.820000000     0.524000000    -5.598000000
H    -3.487000000    -0.058000000    -5.234000000
H    -3.054000000     0.606000000    -6.523000000
