144
-2824.46701
O    -2.568000000     1.844000000     2.959000000
H    -1.678000000     1.497000000     3.019000000
H    -2.852000000     1.935000000     3.868000000
O    -1.183000000     0.703000000     5.060000000
H    -0.968000000    -0.200000000     4.828000000
H    -1.215000000     0.703000000     6.017000000
O    -3.642000000    -3.053000000    -0.245000000
H    -4.201000000    -3.218000000     0.515000000
H    -3.923000000    -2.197000000    -0.568000000
O     0.839000000    -3.814000000    -1.433000000
H     1.584000000    -3.381000000    -1.850000000
H     0.075000000    -3.326000000    -1.740000000
O     3.667000000     3.693000000     3.067000000
H     4.373000000     4.186000000     3.485000000
H     3.468000000     2.989000000     3.685000000
O     1.482000000    -2.287000000    -3.974000000
H     2.318000000    -2.743000000    -3.880000000
H     1.702000000    -1.360000000    -3.878000000
O     0.644000000    -3.913000000     5.673000000
H     1.453000000    -3.481000000     5.949000000
H     0.895000000    -4.826000000     5.535000000
O    -4.072000000    -1.955000000     4.735000000
H    -3.158000000    -2.139000000     4.517000000
H    -4.027000000    -1.432000000     5.535000000
O     6.120000000     2.394000000    -2.876000000
H     6.989000000     2.682000000    -2.597000000
H     6.017000000     2.761000000    -3.754000000
O     1.098000000     3.447000000    -0.288000000
H     0.903000000     2.512000000    -0.236000000
H     0.495000000     3.853000000     0.335000000
O    -0.585000000    -1.910000000     4.108000000
H    -0.073000000    -2.383000000     4.764000000
H    -0.560000000    -2.473000000     3.334000000
O    -0.595000000    -3.511000000     1.172000000
H    -1.444000000    -3.267000000     0.803000000
H     0.035000000    -2.955000000     0.713000000
O     7.360000000    -1.512000000     2.025000000
H     6.948000000    -0.782000000     1.564000000
H     8.115000000    -1.742000000     1.484000000
O     3.615000000     0.984000000     3.461000000
H     2.688000000     0.907000000     3.686000000
H     3.746000000     0.340000000     2.765000000
O     4.953000000     0.116000000    -2.546000000
H     4.488000000    -0.101000000    -1.737000000
H     5.371000000     0.958000000    -2.363000000
O    -4.129000000     2.842000000    -3.034000000
H    -4.851000000     3.468000000    -3.094000000
H    -3.359000000     3.381000000    -2.855000000
O     6.089000000    -2.284000000    -3.420000000
H     5.568000000    -1.646000000    -2.933000000
H     6.567000000    -1.762000000    -4.064000000
O     3.845000000     2.942000000    -1.023000000
H     2.895000000     3.042000000    -1.071000000
H     4.137000000     2.983000000    -1.934000000
O    -7.754000000    -0.884000000     1.333000000
H    -7.461000000     0.022000000     1.239000000
H    -8.145000000    -1.098000000     0.486000000
O     4.799000000    -2.764000000     2.817000000
H     5.608000000    -2.548000000     2.354000000
H     4.185000000    -2.075000000     2.561000000
O    -0.221000000     3.934000000    -2.833000000
H     0.214000000     3.661000000    -2.025000000
H     0.139000000     4.801000000    -3.018000000
O    -2.990000000    -4.438000000    -2.554000000
H    -2.856000000    -3.813000000    -3.267000000
H    -3.203000000    -3.894000000    -1.796000000
O    -4.588000000     4.685000000    -0.927000000
H    -3.934000000     4.424000000    -0.279000000
H    -4.086000000     5.140000000    -1.603000000
O    -0.505000000     2.074000000    -5.059000000
H    -0.247000000     2.493000000    -4.238000000
H     0.306000000     2.018000000    -5.565000000
O    -2.770000000     1.170000000    -6.406000000
H    -3.406000000     1.053000000    -5.700000000
H    -1.936000000     1.303000000    -5.957000000
O     5.674000000     1.817000000     4.595000000
H     5.034000000     1.465000000     3.976000000
H     5.495000000     1.354000000     5.413000000
O     3.825000000    -5.339000000     1.528000000
H     3.916000000    -4.618000000     2.151000000
H     4.126000000    -4.975000000     0.695000000
O     1.660000000     1.174000000     5.401000000
H     1.239000000     1.082000000     6.256000000
H     0.941000000     1.366000000     4.800000000
O     5.593000000     3.099000000     1.083000000
H     5.145000000     2.988000000     0.245000000
H     4.921000000     3.442000000     1.671000000
O     8.317000000     0.115000000    -1.520000000
H     7.860000000     0.399000000    -2.311000000
H     7.679000000     0.236000000    -0.817000000
O    -0.170000000    -6.038000000     2.219000000
H    -0.721000000    -6.060000000     3.001000000
H    -0.033000000    -5.106000000     2.048000000
O     7.525000000    -1.872000000     4.660000000
H     7.817000000    -1.047000000     5.046000000
H     7.427000000    -1.679000000     3.728000000
O    -1.284000000    -2.431000000    -3.922000000
H    -1.215000000    -3.076000000    -4.626000000
H    -0.443000000    -1.975000000    -3.932000000
O    -4.010000000    -1.726000000    -4.832000000
H    -3.712000000    -2.177000000    -5.622000000
H    -3.213000000    -1.589000000    -4.319000000
O     3.591000000    -4.045000000    -3.454000000
H     3.736000000    -4.385000000    -2.571000000
H     4.468000000    -3.848000000    -3.782000000
O     2.610000000     3.282000000    -4.279000000
H     3.088000000     3.770000000    -4.949000000
H     1.731000000     3.662000000    -4.287000000
O     3.885000000    -2.788000000     5.738000000
H     3.951000000    -2.965000000     4.800000000
H     4.591000000    -3.302000000     6.130000000
O     4.237000000    -3.443000000    -0.812000000
H     5.104000000    -3.457000000    -0.405000000
H     3.766000000    -2.751000000    -0.348000000
O    -4.689000000     2.876000000     1.801000000
H    -4.001000000     2.218000000     1.896000000
H    -4.320000000     3.668000000     2.192000000
O    -5.898000000     2.188000000    -0.429000000
H    -5.352000000     2.478000000     0.302000000
H    -5.581000000     2.691000000    -1.179000000
O    -5.547000000    -0.439000000    -1.407000000
H    -5.516000000     0.485000000    -1.158000000
H    -6.446000000    -0.707000000    -1.222000000
O     6.199000000     0.334000000     0.486000000
H     5.985000000     1.187000000     0.864000000
H     5.356000000    -0.022000000     0.206000000
O    -5.844000000    -3.205000000     1.302000000
H    -6.339000000    -2.387000000     1.253000000
H    -5.799000000    -3.402000000     2.237000000
O     2.583000000     0.279000000    -3.971000000
H     2.491000000     1.213000000    -4.159000000
H     3.484000000     0.184000000    -3.662000000
O     4.329000000    -0.255000000     6.224000000
H     4.198000000    -1.141000000     5.888000000
H     4.144000000     0.315000000     5.477000000
O    -0.691000000     4.020000000     1.755000000
H    -0.895000000     3.570000000     2.575000000
H    -1.403000000     4.649000000     1.644000000
O    -5.497000000     0.639000000    -4.104000000
H    -4.980000000     1.250000000    -3.579000000
H    -5.435000000    -0.192000000    -3.634000000
O    -2.148000000     3.962000000    -6.546000000
H    -2.847000000     3.354000000    -6.785000000
H    -1.753000000     3.577000000    -5.763000000
