144
-2801.63511
O    -7.251000000     1.014000000     2.219000000
H    -7.030000000     1.903000000     1.941000000
H    -8.204000000     0.969000000     2.141000000
O    -6.319000000     2.578000000    -0.884000000
H    -5.818000000     3.245000000    -1.353000000
H    -7.133000000     3.018000000    -0.638000000
O    -2.251000000     1.656000000     6.046000000
H    -2.151000000     0.728000000     5.835000000
H    -2.818000000     1.999000000     5.356000000
O     1.010000000     3.804000000     0.829000000
H     0.872000000     3.476000000     1.717000000
H     1.449000000     4.646000000     0.950000000
O     2.948000000    -1.922000000    -6.043000000
H     2.211000000    -2.494000000    -6.255000000
H     2.576000000    -1.256000000    -5.464000000
O     7.995000000    -0.952000000     1.038000000
H     7.127000000    -0.873000000     1.436000000
H     8.400000000    -0.097000000     1.177000000
O     3.754000000     2.052000000     2.804000000
H     3.012000000     1.748000000     3.326000000
H     4.329000000     2.487000000     3.434000000
O     2.198000000    -2.501000000     3.666000000
H     2.534000000    -1.807000000     4.232000000
H     2.949000000    -2.756000000     3.129000000
O    -3.202000000    -3.708000000    -4.190000000
H    -2.355000000    -3.593000000    -4.621000000
H    -3.424000000    -2.837000000    -3.863000000
O    -0.614000000    -4.033000000     0.018000000
H    -0.801000000    -3.706000000     0.898000000
H    -0.179000000    -3.302000000    -0.421000000
O     4.129000000     2.231000000     0.134000000
H     4.017000000     1.320000000    -0.137000000
H     4.032000000     2.211000000     1.086000000
O     6.275000000    -4.275000000     0.581000000
H     5.623000000    -4.459000000    -0.095000000
H     6.969000000    -4.916000000     0.427000000
O     2.061000000    -0.433000000    -4.039000000
H     2.218000000    -0.653000000    -3.120000000
H     2.771000000     0.167000000    -4.266000000
O    -0.447000000    -2.237000000     1.986000000
H    -0.091000000    -1.401000000     1.685000000
H     0.246000000    -2.610000000     2.531000000
O     6.594000000    -1.032000000    -4.129000000
H     6.458000000    -1.002000000    -3.182000000
H     6.536000000    -0.118000000    -4.408000000
O     5.480000000    -3.182000000    -5.246000000
H     5.907000000    -2.392000000    -4.916000000
H     4.544000000    -2.996000000    -5.175000000
O    -1.675000000     5.375000000     0.351000000
H    -0.784000000     5.027000000     0.366000000
H    -1.646000000     6.134000000     0.934000000
O     7.254000000     2.216000000     1.512000000
H     6.719000000     3.002000000     1.393000000
H     6.626000000     1.494000000     1.495000000
O     3.392000000     3.326000000    -2.462000000
H     3.713000000     2.839000000    -1.703000000
H     2.481000000     3.047000000    -2.559000000
O    -3.667000000    -2.631000000     2.506000000
H    -2.868000000    -2.293000000     2.101000000
H    -4.145000000    -1.849000000     2.781000000
O    -3.267000000    -4.761000000    -0.627000000
H    -3.813000000    -4.062000000    -0.988000000
H    -2.453000000    -4.323000000    -0.379000000
O    -2.892000000    -0.989000000    -3.561000000
H    -2.789000000    -0.095000000    -3.233000000
H    -1.997000000    -1.311000000    -3.665000000
O     0.665000000     3.519000000     3.440000000
H     1.003000000     2.701000000     3.804000000
H    -0.004000000     3.801000000     4.065000000
O    -3.500000000     2.561000000     3.756000000
H    -3.833000000     1.716000000     3.453000000
H    -3.723000000     3.172000000     3.054000000
O     1.748000000     1.186000000     4.631000000
H     0.911000000     0.816000000     4.912000000
H     2.406000000     0.652000000     5.076000000
O     5.628000000     0.063000000     2.094000000
H     5.197000000     0.452000000     2.856000000
H     4.963000000     0.085000000     1.406000000
O     0.753000000    -5.771000000    -1.871000000
H     1.264000000    -5.261000000    -2.499000000
H     0.484000000    -5.135000000    -1.208000000
O     8.300000000    -2.871000000    -2.133000000
H     7.601000000    -2.310000000    -1.796000000
H     7.905000000    -3.742000000    -2.182000000
O    -5.756000000    -0.505000000    -4.477000000
H    -4.900000000    -0.097000000    -4.345000000
H    -5.603000000    -1.171000000    -5.147000000
O    -0.228000000    -0.986000000     5.173000000
H     0.364000000    -1.736000000     5.117000000
H    -1.103000000    -1.374000000     5.202000000
O    -1.367000000    -2.795000000    -6.002000000
H    -1.810000000    -2.538000000    -6.811000000
H    -0.914000000    -2.002000000    -5.715000000
O    -4.278000000     4.743000000     2.124000000
H    -4.095000000     4.656000000     1.188000000
H    -3.569000000     5.292000000     2.457000000
O    -1.600000000     1.839000000    -3.021000000
H    -0.904000000     2.176000000    -2.456000000
H    -1.310000000     2.050000000    -3.908000000
O     1.979000000    -3.740000000    -3.531000000
H     1.908000000    -3.443000000    -4.438000000
H     2.433000000    -3.028000000    -3.081000000
O    -7.137000000    -2.642000000     0.291000000
H    -6.625000000    -1.908000000    -0.050000000
H    -7.604000000    -2.983000000    -0.472000000
O    -6.753000000     3.806000000     2.394000000
H    -5.968000000     4.354000000     2.426000000
H    -7.284000000     4.189000000     1.696000000
O     4.221000000    -4.021000000    -1.412000000
H     4.087000000    -4.180000000    -2.347000000
H     4.138000000    -3.072000000    -1.317000000
O     4.211000000    -2.713000000     1.746000000
H     4.796000000    -3.239000000     1.200000000
H     3.997000000    -1.953000000     1.205000000
O    -5.911000000    -0.357000000    -0.096000000
H    -5.626000000     0.373000000    -0.646000000
H    -6.117000000     0.045000000     0.748000000
O    -4.979000000    -0.354000000     3.477000000
H    -5.281000000    -0.749000000     4.295000000
H    -5.767000000     0.025000000     3.088000000
O    -4.920000000    -2.830000000    -1.832000000
H    -5.295000000    -2.013000000    -1.500000000
H    -5.668000000    -3.308000000    -2.190000000
O     6.233000000    -1.004000000    -1.281000000
H     6.861000000    -0.889000000    -0.567000000
H     5.395000000    -1.147000000    -0.842000000
O    -5.785000000    -4.200000000     2.000000000
H    -4.989000000    -3.726000000     2.241000000
H    -6.175000000    -3.674000000     1.302000000
O    -0.335000000    -0.309000000    -5.559000000
H    -0.651000000     0.592000000    -5.630000000
H     0.406000000    -0.256000000    -4.955000000
O    -0.720000000     3.907000000     6.148000000
H    -1.302000000     3.164000000     5.988000000
H    -0.444000000     3.803000000     7.058000000
O     3.477000000    -0.969000000     5.544000000
H     4.350000000    -0.708000000     5.837000000
H     3.188000000    -1.611000000     6.193000000
O     0.768000000     2.378000000    -1.425000000
H     0.920000000     2.976000000    -0.694000000
H     0.665000000     1.519000000    -1.015000000
O    -4.093000000     1.941000000    -3.710000000
H    -3.195000000     2.055000000    -3.399000000
H    -4.480000000     2.814000000    -3.652000000
