144
-2828.54044
O    -5.863000000     3.817000000    -0.574000000
H    -5.709000000     4.301000000    -1.386000000
H    -6.755000000     4.055000000    -0.319000000
O    -3.170000000     2.415000000     6.735000000
H    -4.003000000     2.116000000     7.101000000
H    -2.948000000     1.757000000     6.076000000
O     3.388000000    -7.377000000    -0.038000000
H     3.504000000    -6.428000000    -0.084000000
H     2.449000000    -7.497000000     0.103000000
O    -0.173000000    -4.141000000     2.073000000
H     0.515000000    -3.568000000     2.410000000
H    -0.485000000    -4.618000000     2.842000000
O     5.021000000     1.285000000    -1.851000000
H     5.837000000     1.009000000    -1.434000000
H     4.375000000     1.273000000    -1.144000000
O     6.804000000    -1.416000000    -0.534000000
H     7.076000000    -2.300000000    -0.779000000
H     7.512000000    -0.852000000    -0.847000000
O     0.612000000     2.848000000    -5.261000000
H     1.446000000     3.287000000    -5.430000000
H     0.422000000     3.039000000    -4.343000000
O     3.898000000     1.466000000     1.023000000
H     4.541000000     0.773000000     1.172000000
H     3.583000000     1.693000000     1.897000000
O     1.018000000    -1.986000000     4.121000000
H     1.322000000    -2.374000000     4.941000000
H     1.804000000    -1.931000000     3.576000000
O     7.071000000    -3.966000000    -1.587000000
H     7.266000000    -4.669000000    -0.968000000
H     6.344000000    -4.304000000    -2.111000000
O    -1.510000000    -4.649000000    -2.554000000
H    -1.805000000    -3.870000000    -2.083000000
H    -1.194000000    -4.316000000    -3.394000000
O     2.247000000     1.944000000    -1.461000000
H     1.673000000     1.181000000    -1.523000000
H     2.657000000     1.867000000    -0.599000000
O     4.506000000    -4.833000000    -2.568000000
H     4.716000000    -4.030000000    -3.047000000
H     4.018000000    -5.365000000    -3.195000000
O     3.461000000     0.739000000    -4.129000000
H     2.994000000     0.057000000    -3.648000000
H     3.715000000     1.374000000    -3.459000000
O    -1.352000000    -2.968000000    -0.131000000
H    -0.877000000    -2.198000000    -0.444000000
H    -0.998000000    -3.129000000     0.744000000
O     4.435000000    -1.283000000    -5.966000000
H     3.902000000    -0.490000000    -6.020000000
H     4.928000000    -1.184000000    -5.151000000
O    -4.275000000     4.524000000     1.281000000
H    -4.793000000     4.215000000     0.537000000
H    -4.727000000     4.173000000     2.049000000
O     4.345000000     4.061000000     2.168000000
H     4.225000000     3.626000000     1.324000000
H     3.707000000     3.643000000     2.746000000
O     0.006000000     3.797000000    -2.424000000
H     0.647000000     3.271000000    -1.946000000
H    -0.424000000     4.322000000    -1.748000000
O     7.598000000    -3.017000000     2.629000000
H     6.958000000    -3.581000000     2.193000000
H     8.418000000    -3.508000000     2.585000000
O    -4.338000000    -2.974000000     1.929000000
H    -3.718000000    -2.469000000     1.402000000
H    -5.166000000    -2.503000000     1.842000000
O     5.048000000    -0.311000000     4.270000000
H     4.831000000    -0.578000000     3.377000000
H     5.997000000    -0.183000000     4.258000000
O    -4.496000000    -3.530000000    -2.545000000
H    -4.515000000    -3.647000000    -1.595000000
H    -4.876000000    -2.663000000    -2.687000000
O    -2.322000000     3.457000000    -6.038000000
H    -1.611000000     2.919000000    -5.690000000
H    -2.385000000     4.193000000    -5.429000000
O    -2.198000000    -2.037000000    -4.598000000
H    -2.685000000    -1.650000000    -3.871000000
H    -2.873000000    -2.335000000    -5.208000000
O     2.777000000     2.359000000     3.379000000
H     1.821000000     2.313000000     3.374000000
H     3.005000000     2.503000000     4.297000000
O     3.032000000    -2.832000000     2.440000000
H     2.974000000    -3.447000000     1.709000000
H     3.922000000    -2.484000000     2.390000000
O    -5.278000000     0.877000000     5.148000000
H    -5.353000000    -0.073000000     5.232000000
H    -5.528000000     1.059000000     4.243000000
O     0.247000000     2.808000000     4.628000000
H    -0.607000000     2.514000000     4.312000000
H     0.578000000     2.074000000     5.145000000
O     5.028000000    -1.205000000     1.485000000
H     5.885000000    -1.313000000     1.073000000
H     4.401000000    -1.434000000     0.799000000
O     0.138000000    -5.684000000    -4.557000000
H     0.488000000    -4.795000000    -4.487000000
H     0.291000000    -6.070000000    -3.694000000
O     7.857000000    -2.582000000    -4.092000000
H     7.089000000    -2.383000000    -3.557000000
H     8.586000000    -2.585000000    -3.472000000
O    -1.169000000    -0.121000000     4.691000000
H    -0.755000000    -0.810000000     4.171000000
H    -0.894000000    -0.302000000     5.590000000
O     5.601000000    -4.640000000     1.696000000
H     4.846000000    -4.744000000     1.116000000
H     6.324000000    -5.053000000     1.224000000
O     0.182000000    -1.635000000    -6.046000000
H    -0.732000000    -1.620000000    -5.761000000
H     0.154000000    -2.032000000    -6.917000000
O     1.349000000    -3.154000000    -3.947000000
H     1.114000000    -2.616000000    -4.703000000
H     1.826000000    -2.558000000    -3.369000000
O     3.880000000    -3.926000000    -5.472000000
H     4.109000000    -3.018000000    -5.671000000
H     3.110000000    -3.861000000    -4.907000000
O     3.600000000    -4.525000000    -0.115000000
H     3.818000000    -4.647000000    -1.039000000
H     3.523000000    -3.576000000    -0.010000000
O    -4.681000000     1.134000000    -1.276000000
H    -4.020000000     1.812000000    -1.134000000
H    -5.507000000     1.615000000    -1.336000000
O    -6.087000000    -0.828000000     0.734000000
H    -6.687000000    -0.189000000     1.118000000
H    -5.565000000    -0.322000000     0.111000000
O    -4.749000000    -0.814000000    -3.161000000
H    -4.743000000    -0.070000000    -2.559000000
H    -5.206000000    -0.490000000    -3.938000000
O     5.231000000    -1.922000000    -2.818000000
H     5.623000000    -1.463000000    -2.075000000
H     4.304000000    -1.996000000    -2.590000000
O    -4.736000000     1.461000000    -5.268000000
H    -3.948000000     1.872000000    -4.911000000
H    -4.421000000     0.938000000    -6.005000000
O    -1.597000000     0.970000000    -4.710000000
H    -1.523000000     0.016000000    -4.689000000
H    -0.975000000     1.244000000    -5.384000000
O     1.132000000     0.683000000     6.354000000
H     1.941000000     1.067000000     6.691000000
H     1.418000000    -0.084000000     5.858000000
O     0.427000000     3.572000000     0.438000000
H     0.495000000     4.426000000     0.865000000
H    -0.297000000     3.137000000     0.890000000
O    -2.939000000     2.902000000    -2.511000000
H    -2.523000000     2.319000000    -3.145000000
H    -2.639000000     3.777000000    -2.756000000
O    -4.276000000     7.261000000     0.671000000
H    -3.565000000     7.748000000     0.255000000
H    -3.989000000     6.348000000     0.642000000
