144
-2839.67571
O    -7.925000000    -0.497000000     0.846000000
H    -7.228000000    -0.501000000     0.190000000
H    -7.565000000     0.010000000     1.574000000
O     0.461000000    -5.291000000    -3.013000000
H    -0.364000000    -5.096000000    -3.458000000
H     0.319000000    -5.007000000    -2.110000000
O    -3.109000000     4.197000000    -0.545000000
H    -3.241000000     5.119000000    -0.327000000
H    -3.882000000     3.755000000    -0.195000000
O     0.260000000    -3.008000000     1.130000000
H     0.288000000    -2.090000000     0.860000000
H     1.175000000    -3.237000000     1.294000000
O     7.860000000    -0.724000000    -1.449000000
H     7.251000000    -0.130000000    -1.886000000
H     8.180000000    -0.228000000    -0.695000000
O     6.329000000     1.377000000    -2.151000000
H     6.198000000     1.951000000    -2.906000000
H     6.417000000     1.974000000    -1.408000000
O     1.014000000    -0.848000000     4.455000000
H     1.247000000    -0.962000000     5.376000000
H     1.854000000    -0.761000000     4.004000000
O    -1.022000000     2.260000000    -5.496000000
H    -0.720000000     2.349000000    -4.592000000
H    -0.237000000     2.022000000    -5.989000000
O     3.690000000     4.712000000     0.132000000
H     3.620000000     5.646000000    -0.062000000
H     2.807000000     4.371000000    -0.009000000
O     3.325000000     2.761000000     2.875000000
H     3.124000000     1.835000000     3.015000000
H     4.205000000     2.761000000     2.499000000
O     5.645000000    -4.794000000    -3.488000000
H     6.091000000    -5.140000000    -2.715000000
H     4.731000000    -4.704000000    -3.218000000
O    -2.653000000    -4.165000000    -2.569000000
H    -2.030000000    -4.178000000    -1.842000000
H    -3.489000000    -3.935000000    -2.163000000
O    -0.097000000     2.178000000    -2.867000000
H     0.114000000     2.780000000    -2.153000000
H    -0.810000000     1.640000000    -2.523000000
O     3.234000000    -4.579000000    -2.647000000
H     2.970000000    -3.666000000    -2.532000000
H     2.423000000    -5.037000000    -2.868000000
O     2.383000000     1.911000000    -3.683000000
H     1.511000000     2.027000000    -3.305000000
H     2.674000000     1.060000000    -3.356000000
O    -0.753000000    -4.629000000    -0.612000000
H    -0.541000000    -3.815000000    -0.154000000
H    -0.825000000    -5.283000000     0.083000000
O    -5.293000000     1.169000000     2.259000000
H    -4.864000000     0.592000000     2.890000000
H    -6.197000000     1.230000000     2.566000000
O     6.748000000    -1.953000000    -4.790000000
H     5.969000000    -1.697000000    -4.296000000
H     6.999000000    -2.799000000    -4.419000000
O    -3.202000000     1.849000000    -2.639000000
H    -4.073000000     1.672000000    -2.995000000
H    -3.212000000     2.785000000    -2.437000000
O    -3.262000000    -1.786000000    -4.047000000
H    -2.849000000    -2.614000000    -3.800000000
H    -4.085000000    -1.774000000    -3.557000000
O     1.129000000     3.952000000     1.341000000
H     1.926000000     3.689000000     1.802000000
H     0.439000000     3.892000000     2.001000000
O    -0.924000000     3.444000000     3.530000000
H    -0.264000000     3.793000000     4.129000000
H    -1.725000000     3.919000000     3.752000000
O     2.769000000    -4.833000000     2.356000000
H     3.277000000    -4.931000000     1.551000000
H     3.412000000    -4.940000000     3.058000000
O    -4.465000000    -1.361000000     3.992000000
H    -4.984000000    -2.095000000     3.663000000
H    -3.775000000    -1.771000000     4.514000000
O     1.364000000     3.184000000     5.055000000
H     2.190000000     3.183000000     4.571000000
H     1.623000000     3.289000000     5.971000000
O     5.626000000    -1.709000000     0.331000000
H     6.253000000    -1.311000000    -0.273000000
H     4.769000000    -1.486000000    -0.032000000
O     4.182000000    -0.646000000    -6.069000000
H     4.253000000    -1.594000000    -6.176000000
H     4.001000000    -0.522000000    -5.137000000
O    -5.735000000     5.073000000     2.886000000
H    -6.574000000     4.613000000     2.899000000
H    -5.194000000     4.603000000     3.521000000
O    -1.137000000     0.817000000     5.046000000
H    -1.297000000     1.451000000     4.347000000
H    -0.395000000     0.299000000     4.734000000
O    -2.759000000    -2.782000000     5.444000000
H    -2.054000000    -2.804000000     4.796000000
H    -2.943000000    -3.703000000     5.628000000
O     7.089000000    -4.938000000    -0.629000000
H     6.353000000    -4.392000000    -0.353000000
H     7.159000000    -5.607000000     0.051000000
O     1.131000000    -2.150000000    -5.157000000
H     0.493000000    -1.445000000    -5.266000000
H     1.483000000    -2.020000000    -4.276000000
O     5.432000000    -2.081000000     2.949000000
H     5.440000000    -3.022000000     3.127000000
H     5.531000000    -2.017000000     1.999000000
O     5.987000000     2.370000000     2.295000000
H     6.076000000     2.170000000     1.363000000
H     6.336000000     1.598000000     2.740000000
O     3.243000000     5.375000000     3.880000000
H     3.672000000     5.337000000     4.735000000
H     3.300000000     4.481000000     3.544000000
O     4.044000000    -4.447000000    -0.001000000
H     3.761000000    -4.654000000    -0.891000000
H     3.992000000    -3.493000000     0.051000000
O    -4.802000000    -0.581000000     0.008000000
H    -4.266000000     0.090000000    -0.415000000
H    -5.220000000    -0.128000000     0.740000000
O    -0.614000000    -3.169000000     3.723000000
H    -0.107000000    -2.391000000     3.956000000
H    -0.318000000    -3.392000000     2.841000000
O    -4.957000000    -2.863000000    -1.271000000
H    -5.605000000    -2.874000000    -1.975000000
H    -5.023000000    -1.985000000    -0.897000000
O     4.434000000    -0.208000000    -3.128000000
H     5.196000000     0.233000000    -2.751000000
H     4.153000000    -0.822000000    -2.450000000
O    -3.913000000    -4.097000000     1.047000000
H    -4.410000000    -3.754000000     0.304000000
H    -3.312000000    -3.390000000     1.280000000
O    -5.567000000     3.116000000     0.381000000
H    -6.417000000     3.343000000     0.758000000
H    -5.116000000     2.640000000     1.078000000
O    -1.062000000    -0.560000000    -5.343000000
H    -1.806000000    -0.924000000    -4.864000000
H    -1.262000000     0.373000000    -5.424000000
O    -4.485000000     3.563000000     4.909000000
H    -3.633000000     3.134000000     4.831000000
H    -4.991000000     2.989000000     5.484000000
O     3.677000000    -0.085000000     3.566000000
H     4.101000000    -0.083000000     4.424000000
H     4.197000000    -0.696000000     3.043000000
O     2.044000000    -4.779000000    -6.095000000
H     1.116000000    -4.841000000    -5.867000000
H     2.292000000    -3.887000000    -5.852000000
O    -0.596000000     2.052000000     7.398000000
H    -1.344000000     2.635000000     7.531000000
H    -0.767000000     1.630000000     6.556000000
O    -0.257000000     4.172000000    -1.044000000
H     0.181000000     4.189000000    -0.193000000
H    -1.161000000     4.423000000    -0.853000000
