144
-2777.53861
O    -0.855000000     6.375000000    -2.283000000
H    -0.512000000     7.089000000    -1.746000000
H    -0.418000000     5.592000000    -1.948000000
O     2.858000000    -3.245000000    -0.472000000
H     2.888000000    -3.967000000    -1.099000000
H     3.193000000    -2.492000000    -0.959000000
O    -0.220000000     2.606000000    -6.010000000
H     0.299000000     2.284000000    -5.273000000
H     0.401000000     2.652000000    -6.737000000
O     1.339000000     2.896000000     3.526000000
H     1.845000000     2.535000000     4.254000000
H     0.705000000     3.480000000     3.942000000
O    -3.995000000    -1.874000000     3.000000000
H    -3.778000000    -2.746000000     2.672000000
H    -4.385000000    -1.425000000     2.250000000
O    -4.045000000     2.397000000     4.226000000
H    -4.556000000     3.009000000     4.756000000
H    -3.844000000     2.883000000     3.426000000
O    -0.797000000    -7.391000000     1.380000000
H     0.128000000    -7.581000000     1.533000000
H    -0.904000000    -6.480000000     1.653000000
O     3.272000000     1.402000000     0.493000000
H     3.527000000     1.689000000     1.370000000
H     2.445000000     0.938000000     0.625000000
O    -1.255000000    -4.319000000    -5.373000000
H    -0.578000000    -3.683000000    -5.145000000
H    -0.794000000    -5.158000000    -5.405000000
O    -0.962000000    -3.713000000     0.184000000
H    -0.557000000    -3.957000000    -0.648000000
H    -0.266000000    -3.269000000     0.669000000
O     5.223000000     0.728000000    -1.296000000
H     4.657000000     0.788000000    -0.526000000
H     4.676000000     0.318000000    -1.965000000
O     1.153000000    -2.638000000    -4.276000000
H     0.671000000    -1.859000000    -3.998000000
H     2.049000000    -2.330000000    -4.410000000
O    -2.487000000     2.025000000    -4.260000000
H    -1.660000000     2.016000000    -3.777000000
H    -2.226000000     2.029000000    -5.181000000
O     3.335000000    -4.733000000    -2.743000000
H     3.738000000    -5.596000000    -2.647000000
H     2.667000000    -4.854000000    -3.418000000
O     4.438000000    -3.206000000    -5.071000000
H     5.041000000    -3.008000000    -5.788000000
H     3.755000000    -3.741000000    -5.474000000
O    -3.216000000    -4.077000000     1.268000000
H    -2.434000000    -3.657000000     0.910000000
H    -3.411000000    -4.784000000     0.654000000
O    -1.873000000     0.529000000    -6.780000000
H    -1.824000000     0.531000000    -7.736000000
H    -0.967000000     0.651000000    -6.493000000
O     1.161000000     0.094000000    -5.852000000
H     2.022000000    -0.231000000    -6.114000000
H     1.250000000     0.281000000    -4.917000000
O     6.580000000    -1.685000000    -2.737000000
H     5.653000000    -1.455000000    -2.788000000
H     6.619000000    -2.592000000    -3.040000000
O     2.864000000    -1.659000000    -7.825000000
H     3.445000000    -2.419000000    -7.812000000
H     3.394000000    -0.946000000    -7.468000000
O     5.408000000    -0.959000000     3.555000000
H     5.372000000    -1.688000000     2.936000000
H     6.341000000    -0.847000000     3.739000000
O    -4.358000000     3.807000000    -3.444000000
H    -5.190000000     3.424000000    -3.163000000
H    -3.709000000     3.126000000    -3.268000000
O     2.957000000     3.819000000    -0.791000000
H     2.958000000     2.920000000    -0.460000000
H     3.411000000     3.766000000    -1.631000000
O     1.716000000     0.708000000     6.976000000
H     1.171000000     1.012000000     7.702000000
H     1.441000000    -0.198000000     6.833000000
O    -2.064000000     2.605000000     6.679000000
H    -2.115000000     2.361000000     5.755000000
H    -2.203000000     3.552000000     6.685000000
O     3.976000000    -1.540000000    -2.878000000
H     3.978000000    -2.324000000    -3.428000000
H     3.159000000    -1.095000000    -3.099000000
O     4.204000000     0.470000000    -6.979000000
H     4.755000000     0.165000000    -6.258000000
H     4.745000000     1.111000000    -7.440000000
O    -5.397000000     1.760000000    -0.905000000
H    -5.278000000     1.526000000     0.016000000
H    -5.660000000     0.943000000    -1.328000000
O    -3.463000000    -0.574000000    -5.094000000
H    -3.464000000     0.281000000    -4.664000000
H    -2.736000000    -0.529000000    -5.716000000
O     0.449000000     3.967000000    -2.168000000
H     1.099000000     3.859000000    -1.472000000
H     0.471000000     3.138000000    -2.646000000
O    -4.120000000    -0.185000000     5.141000000
H    -3.948000000    -0.767000000     4.401000000
H    -4.229000000     0.680000000     4.746000000
O     1.463000000    -1.945000000     5.713000000
H     0.625000000    -1.652000000     5.355000000
H     1.254000000    -2.242000000     6.599000000
O    -0.984000000     4.950000000    -4.974000000
H    -0.684000000     4.118000000    -5.339000000
H    -0.720000000     4.917000000    -4.054000000
O    -4.310000000    -5.464000000     3.834000000
H    -3.898000000    -6.211000000     4.268000000
H    -3.609000000    -5.073000000     3.312000000
O     3.939000000    -2.646000000     5.024000000
H     4.234000000    -1.877000000     4.537000000
H     3.044000000    -2.433000000     5.290000000
O     4.086000000     3.918000000    -3.731000000
H     3.757000000     3.855000000    -4.627000000
H     4.944000000     3.495000000    -3.760000000
O    -0.585000000    -5.132000000     4.092000000
H    -1.077000000    -4.411000000     4.486000000
H     0.050000000    -4.703000000     3.518000000
O    -3.373000000     5.175000000    -0.595000000
H    -3.624000000     4.252000000    -0.576000000
H    -3.854000000     5.539000000    -1.338000000
O    -0.013000000     3.617000000     1.323000000
H     0.294000000     3.133000000     2.089000000
H    -0.147000000     2.946000000     0.653000000
O    -0.258000000    -4.222000000    -2.506000000
H     0.380000000    -4.120000000    -3.213000000
H    -0.990000000    -4.688000000    -2.910000000
O     5.961000000    -0.053000000    -4.896000000
H     6.111000000    -0.501000000    -4.064000000
H     6.286000000     0.836000000    -4.752000000
O     3.129000000     3.026000000    -6.140000000
H     3.154000000     2.073000000    -6.051000000
H     2.925000000     3.175000000    -7.063000000
O    -4.677000000     4.043000000     2.067000000
H    -5.418000000     4.011000000     1.462000000
H    -4.709000000     4.925000000     2.438000000
O    -2.331000000    -1.939000000    -1.562000000
H    -1.888000000    -1.273000000    -1.037000000
H    -1.799000000    -2.727000000    -1.449000000
O     1.632000000    -4.014000000     2.904000000
H     2.110000000    -4.514000000     2.243000000
H     2.216000000    -3.288000000     3.125000000
O     4.343000000    -3.257000000     1.830000000
H     3.916000000    -2.867000000     1.067000000
H     5.278000000    -3.196000000     1.638000000
O    -1.776000000    -3.113000000     5.398000000
H    -2.601000000    -2.690000000     5.161000000
H    -1.765000000    -3.097000000     6.355000000
O     4.429000000     1.693000000     3.118000000
H     4.704000000     0.776000000     3.155000000
H     4.493000000     1.999000000     4.022000000
