144
-2779.65655
O    -1.127000000    -2.204000000    -3.259000000
H    -0.181000000    -2.059000000    -3.297000000
H    -1.220000000    -3.084000000    -2.893000000
O     1.390000000     4.914000000     3.159000000
H     0.539000000     5.048000000     2.741000000
H     1.848000000     4.304000000     2.580000000
O    -1.930000000    -3.298000000     0.822000000
H    -1.262000000    -2.654000000     0.588000000
H    -2.639000000    -2.780000000     1.203000000
O     4.313000000    -2.721000000    -6.395000000
H     4.667000000    -2.397000000    -7.223000000
H     5.086000000    -2.928000000    -5.869000000
O    -1.534000000     2.846000000     5.890000000
H    -1.750000000     2.031000000     6.343000000
H    -2.375000000     3.288000000     5.779000000
O     5.210000000     1.276000000    -0.823000000
H     5.145000000     0.983000000    -1.732000000
H     6.132000000     1.508000000    -0.712000000
O    -0.853000000    -4.149000000     4.065000000
H     0.016000000    -4.109000000     3.666000000
H    -0.858000000    -4.976000000     4.546000000
O    -0.119000000    -3.046000000    -7.324000000
H     0.681000000    -2.693000000    -7.715000000
H    -0.421000000    -2.356000000    -6.734000000
O     2.790000000     3.068000000     1.796000000
H     3.628000000     3.362000000     2.154000000
H     2.949000000     2.164000000     1.524000000
O     5.306000000    -5.273000000    -2.145000000
H     5.770000000    -5.636000000    -2.900000000
H     4.418000000    -5.113000000    -2.465000000
O    -1.251000000    -5.042000000    -2.628000000
H    -0.368000000    -5.015000000    -2.261000000
H    -1.788000000    -5.424000000    -1.933000000
O     4.260000000    -3.044000000     2.431000000
H     4.021000000    -3.419000000     1.584000000
H     5.161000000    -3.332000000     2.576000000
O    -2.542000000     2.273000000    -4.333000000
H    -2.668000000     1.337000000    -4.490000000
H    -1.663000000     2.337000000    -3.960000000
O     2.506000000    -5.159000000    -2.709000000
H     2.469000000    -4.334000000    -2.224000000
H     2.385000000    -4.904000000    -3.624000000
O     1.885000000    -0.984000000    -5.629000000
H     2.256000000    -1.744000000    -6.077000000
H     1.695000000    -1.296000000    -4.745000000
O     4.914000000     0.910000000    -4.206000000
H     5.020000000    -0.009000000    -3.961000000
H     5.431000000     1.005000000    -5.007000000
O     6.710000000    -3.742000000    -0.536000000
H     6.194000000    -4.250000000     0.090000000
H     6.521000000    -4.144000000    -1.384000000
O     0.480000000     4.737000000     5.821000000
H    -0.186000000     4.056000000     5.728000000
H     0.726000000     4.955000000     4.921000000
O    -2.292000000    -0.406000000    -4.790000000
H    -1.825000000    -1.084000000    -4.301000000
H    -2.950000000    -0.884000000    -5.295000000
O    -1.568000000    -2.124000000     6.164000000
H    -2.344000000    -1.710000000     5.786000000
H    -1.400000000    -2.878000000     5.599000000
O     4.908000000    -1.623000000    -2.897000000
H     5.305000000    -1.602000000    -2.026000000
H     3.992000000    -1.852000000    -2.737000000
O    -0.369000000    -0.206000000    -6.888000000
H     0.566000000    -0.409000000    -6.863000000
H    -0.610000000    -0.076000000    -5.970000000
O    -2.518000000     4.314000000    -1.072000000
H    -3.197000000     4.391000000    -0.402000000
H    -2.872000000     4.785000000    -1.827000000
O     2.223000000     1.364000000     6.660000000
H     1.909000000     0.576000000     6.216000000
H     1.607000000     2.048000000     6.397000000
O     2.370000000    -6.545000000     1.380000000
H     2.651000000    -5.633000000     1.307000000
H     1.825000000    -6.565000000     2.167000000
O    -3.788000000    -1.227000000     5.143000000
H    -3.999000000    -0.295000000     5.194000000
H    -4.316000000    -1.553000000     4.414000000
O     3.512000000     0.469000000     1.140000000
H     4.291000000     0.690000000     0.630000000
H     2.896000000     0.117000000     0.497000000
O     6.189000000    -3.680000000    -4.801000000
H     5.888000000    -3.368000000    -3.947000000
H     6.003000000    -4.619000000    -4.792000000
O    -4.213000000    -0.223000000    -1.593000000
H    -3.292000000    -0.160000000    -1.340000000
H    -4.552000000    -0.958000000    -1.081000000
O     1.343000000    -7.463000000    -1.544000000
H     1.936000000    -6.748000000    -1.775000000
H     1.499000000    -7.612000000    -0.612000000
O    -4.536000000     2.834000000     3.358000000
H    -4.080000000     2.327000000     4.029000000
H    -4.117000000     3.694000000     3.381000000
O     2.329000000     1.492000000    -4.092000000
H     3.248000000     1.743000000    -3.994000000
H     2.353000000     0.546000000    -4.234000000
O     3.636000000    -0.636000000     3.553000000
H     3.690000000    -0.149000000     2.730000000
H     3.630000000    -1.555000000     3.287000000
O     1.048000000    -1.231000000     5.284000000
H     0.101000000    -1.140000000     5.388000000
H     1.175000000    -2.146000000     5.036000000
O    -5.819000000     2.202000000    -2.256000000
H    -5.370000000     2.713000000    -1.584000000
H    -5.447000000     1.323000000    -2.178000000
O     0.049000000     2.593000000    -3.169000000
H     0.742000000     2.180000000    -3.684000000
H     0.261000000     2.374000000    -2.262000000
O     1.923000000    -3.666000000     3.668000000
H     2.560000000    -3.304000000     3.052000000
H     2.312000000    -4.492000000     3.956000000
O     3.580000000    -3.990000000     0.142000000
H     3.197000000    -3.371000000    -0.479000000
H     4.179000000    -4.518000000    -0.386000000
O     0.223000000     6.367000000    -0.813000000
H    -0.443000000     5.682000000    -0.756000000
H     0.038000000     6.945000000    -0.073000000
O    -0.575000000     5.090000000    -3.566000000
H    -0.424000000     4.167000000    -3.362000000
H     0.092000000     5.559000000    -3.063000000
O    -0.939000000     5.456000000     1.890000000
H    -1.244000000     6.361000000     1.951000000
H    -1.703000000     4.966000000     1.585000000
O    -4.529000000    -2.525000000     1.678000000
H    -5.048000000    -2.478000000     0.874000000
H    -4.774000000    -1.739000000     2.167000000
O    -5.404000000    -0.126000000     2.750000000
H    -5.320000000     0.813000000     2.916000000
H    -6.241000000    -0.365000000     3.148000000
O    -6.549000000     3.946000000     2.163000000
H    -6.772000000     4.769000000     2.599000000
H    -5.877000000     3.554000000     2.720000000
O    -4.257000000     1.466000000     5.720000000
H    -3.817000000     1.574000000     6.563000000
H    -5.158000000     1.747000000     5.883000000
O    -5.215000000     4.169000000    -0.384000000
H    -5.649000000     3.931000000     0.436000000
H    -5.335000000     5.116000000    -0.452000000
O     1.491000000     2.862000000    -0.558000000
H     1.911000000     3.271000000     0.198000000
H     1.356000000     1.952000000    -0.294000000
O     2.492000000    -4.924000000    -5.472000000
H     3.274000000    -4.458000000    -5.768000000
H     2.493000000    -5.738000000    -5.976000000
