144
-2814.17778
O    -3.420000000     0.476000000     4.207000000
H    -3.497000000    -0.376000000     3.777000000
H    -2.573000000     0.445000000     4.651000000
O     2.362000000     4.098000000     1.904000000
H     2.328000000     4.445000000     2.795000000
H     1.463000000     4.170000000     1.584000000
O    -0.786000000     0.107000000     4.913000000
H    -1.050000000     0.271000000     5.818000000
H    -0.575000000    -0.826000000     4.890000000
O     1.741000000     3.557000000    -7.294000000
H     1.840000000     2.605000000    -7.307000000
H     0.976000000     3.711000000    -6.740000000
O    -3.334000000     6.148000000    -1.981000000
H    -3.533000000     5.299000000    -2.376000000
H    -2.463000000     6.036000000    -1.600000000
O     1.019000000     4.872000000     5.471000000
H     0.664000000     4.194000000     4.896000000
H     1.507000000     4.388000000     6.139000000
O     0.271000000     7.637000000    -2.549000000
H    -0.006000000     6.798000000    -2.179000000
H    -0.400000000     7.845000000    -3.199000000
O     0.561000000    -4.021000000    -2.844000000
H     1.163000000    -4.325000000    -3.523000000
H     0.999000000    -4.238000000    -2.021000000
O    -2.300000000    -5.556000000     1.115000000
H    -2.371000000    -5.128000000     1.968000000
H    -1.940000000    -4.882000000     0.538000000
O    -0.482000000     4.946000000     1.450000000
H    -1.245000000     4.461000000     1.766000000
H    -0.466000000     5.740000000     1.984000000
O    -0.010000000     2.700000000     4.466000000
H    -0.134000000     1.757000000     4.581000000
H    -0.791000000     2.988000000     3.994000000
O     2.387000000    -5.802000000     1.937000000
H     2.626000000    -4.943000000     2.285000000
H     3.042000000    -6.398000000     2.300000000
O    -2.781000000    -1.241000000    -0.070000000
H    -2.032000000    -0.651000000    -0.152000000
H    -2.470000000    -2.074000000    -0.426000000
O     1.838000000     0.927000000    -4.459000000
H     0.898000000     0.969000000    -4.284000000
H     1.903000000     0.869000000    -5.412000000
O    -4.867000000     0.453000000     0.572000000
H    -4.209000000    -0.144000000     0.215000000
H    -4.586000000     1.321000000     0.280000000
O    -1.725000000    -2.579000000    -3.737000000
H    -0.804000000    -2.420000000    -3.531000000
H    -1.816000000    -3.531000000    -3.712000000
O    -5.305000000    -3.609000000     4.197000000
H    -4.378000000    -3.846000000     4.207000000
H    -5.455000000    -3.266000000     3.316000000
O    -0.811000000     5.248000000    -1.349000000
H    -0.741000000     4.333000000    -1.623000000
H    -0.704000000     5.222000000    -0.398000000
O     2.373000000     4.019000000    -1.126000000
H     2.884000000     4.241000000    -1.904000000
H     1.500000000     3.814000000    -1.462000000
O     3.697000000    -0.571000000     5.107000000
H     4.446000000    -0.026000000     4.866000000
H     2.961000000    -0.192000000     4.625000000
O     3.774000000    -2.509000000    -2.301000000
H     4.075000000    -2.589000000    -1.396000000
H     3.954000000    -1.599000000    -2.534000000
O     5.059000000    -4.403000000    -0.113000000
H     5.555000000    -4.968000000     0.478000000
H     4.921000000    -3.597000000     0.384000000
O    -2.951000000     3.478000000    -2.580000000
H    -1.997000000     3.411000000    -2.543000000
H    -3.246000000     3.185000000    -1.718000000
O     4.706000000    -3.308000000     4.515000000
H     5.604000000    -3.461000000     4.220000000
H     4.506000000    -2.419000000     4.222000000
O    -0.419000000     3.539000000    -5.254000000
H    -0.706000000     2.634000000    -5.130000000
H    -0.190000000     3.840000000    -4.375000000
O     2.130000000    -4.034000000     5.593000000
H     2.360000000    -3.692000000     6.457000000
H     2.940000000    -3.969000000     5.086000000
O     2.727000000     1.066000000     3.082000000
H     2.269000000     1.879000000     3.298000000
H     2.768000000     1.061000000     2.125000000
O    -3.520000000     0.974000000    -6.843000000
H    -2.815000000     0.430000000    -6.493000000
H    -3.071000000     1.712000000    -7.255000000
O     4.150000000    -2.001000000     0.789000000
H     3.418000000    -1.513000000     0.412000000
H     4.665000000    -1.341000000     1.253000000
O    -2.403000000    -4.042000000     3.307000000
H    -2.659000000    -3.122000000     3.371000000
H    -1.723000000    -4.147000000     3.973000000
O     4.516000000     1.914000000    -4.973000000
H     3.859000000     1.324000000    -4.605000000
H     4.057000000     2.748000000    -5.079000000
O    -5.708000000     1.510000000     3.076000000
H    -4.922000000     1.383000000     3.608000000
H    -5.587000000     0.925000000     2.327000000
O    -3.867000000     2.814000000    -0.118000000
H    -4.455000000     3.568000000    -0.067000000
H    -3.469000000     2.762000000     0.750000000
O     2.728000000     1.493000000     0.269000000
H     2.611000000     2.443000000     0.246000000
H     1.857000000     1.150000000     0.468000000
O    -2.520000000     5.617000000    -5.737000000
H    -3.224000000     6.262000000    -5.788000000
H    -2.392000000     5.475000000    -4.799000000
O    -1.844000000    -0.488000000    -5.341000000
H    -1.500000000     0.137000000    -4.702000000
H    -1.693000000    -1.345000000    -4.944000000
O    -4.527000000    -2.286000000    -4.380000000
H    -3.644000000    -2.058000000    -4.671000000
H    -4.420000000    -3.116000000    -3.917000000
O    -4.387000000     1.669000000    -4.158000000
H    -3.790000000     2.288000000    -3.737000000
H    -3.886000000     1.315000000    -4.893000000
O    -2.836000000     3.149000000     2.494000000
H    -3.072000000     3.684000000     3.252000000
H    -3.045000000     2.253000000     2.759000000
O     3.510000000     0.443000000    -2.020000000
H     2.908000000     0.551000000    -2.756000000
H     3.062000000     0.854000000    -1.281000000
O    -0.133000000    -5.715000000     5.629000000
H     0.127000000    -6.591000000     5.343000000
H     0.576000000    -5.145000000     5.331000000
O    -0.464000000    -2.641000000     5.202000000
H    -1.104000000    -2.805000000     5.895000000
H     0.374000000    -2.905000000     5.582000000
O    -1.743000000    -3.874000000    -1.087000000
H    -1.033000000    -3.842000000    -1.729000000
H    -2.410000000    -4.426000000    -1.495000000
O     1.403000000    -7.093000000    -1.580000000
H     1.593000000    -6.239000000    -1.193000000
H     1.588000000    -6.980000000    -2.513000000
O     3.571000000    -4.048000000    -4.882000000
H     3.630000000    -3.567000000    -4.057000000
H     4.456000000    -4.382000000    -5.028000000
O     1.467000000     0.788000000     7.355000000
H     1.727000000    -0.054000000     6.982000000
H     1.476000000     0.644000000     8.302000000
O     2.351000000    -4.670000000    -0.585000000
H     3.291000000    -4.491000000    -0.617000000
H     2.207000000    -5.040000000     0.286000000
O    -3.844000000    -1.844000000     2.438000000
H    -3.316000000    -1.699000000     1.653000000
H    -4.729000000    -1.995000000     2.107000000
