144
-2799.08617
O    -0.259000000     4.961000000     3.563000000
H    -0.432000000     4.022000000     3.636000000
H    -0.953000000     5.288000000     2.991000000
O     5.157000000    -1.710000000     5.049000000
H     5.056000000    -2.645000000     4.871000000
H     4.538000000    -1.533000000     5.757000000
O    -2.512000000     4.002000000    -5.047000000
H    -3.226000000     3.461000000    -4.711000000
H    -1.729000000     3.461000000    -4.940000000
O    -2.672000000     4.773000000    -0.875000000
H    -2.748000000     3.833000000    -1.039000000
H    -3.102000000     5.183000000    -1.625000000
O     4.692000000     2.286000000    -0.386000000
H     4.080000000     3.015000000    -0.284000000
H     5.528000000     2.702000000    -0.597000000
O     3.671000000    -6.497000000     0.826000000
H     4.098000000    -5.683000000     0.556000000
H     3.167000000    -6.255000000     1.603000000
O    -4.757000000     2.056000000    -6.917000000
H    -4.438000000     1.931000000    -6.022000000
H    -5.106000000     1.201000000    -7.168000000
O    -6.475000000    -1.132000000    -0.664000000
H    -7.296000000    -1.623000000    -0.662000000
H    -5.812000000    -1.771000000    -0.404000000
O     3.785000000     0.873000000     4.257000000
H     3.744000000     0.492000000     5.134000000
H     4.349000000     0.277000000     3.763000000
O     0.032000000    -4.564000000     4.174000000
H     0.937000000    -4.657000000     3.877000000
H     0.038000000    -4.899000000     5.071000000
O    -0.092000000    -5.124000000     0.070000000
H     0.458000000    -5.186000000    -0.711000000
H     0.296000000    -5.747000000     0.686000000
O    -4.089000000    -2.691000000    -0.262000000
H    -3.798000000    -2.893000000    -1.151000000
H    -3.278000000    -2.580000000     0.235000000
O    -3.549000000    -1.991000000    -2.819000000
H    -3.178000000    -1.111000000    -2.888000000
H    -3.055000000    -2.509000000    -3.454000000
O    -2.443000000    -3.280000000    -4.738000000
H    -2.835000000    -4.106000000    -5.023000000
H    -1.502000000    -3.408000000    -4.857000000
O    -5.677000000     4.984000000    -2.701000000
H    -5.597000000     4.975000000    -3.655000000
H    -5.848000000     4.072000000    -2.466000000
O    -3.827000000     1.394000000     3.622000000
H    -3.924000000     2.239000000     4.060000000
H    -3.842000000     1.605000000     2.688000000
O     4.050000000    -0.033000000    -1.318000000
H     4.398000000     0.597000000    -0.688000000
H     3.228000000    -0.332000000    -0.928000000
O     5.830000000     0.411000000     1.830000000
H     5.456000000     1.082000000     1.258000000
H     6.654000000     0.790000000     2.136000000
O     4.958000000    -3.703000000     0.390000000
H     5.357000000    -2.984000000     0.881000000
H     5.256000000    -3.571000000    -0.511000000
O    -0.646000000     2.169000000    -4.053000000
H    -1.057000000     1.530000000    -3.471000000
H     0.054000000     1.682000000    -4.489000000
O     6.122000000    -2.130000000     2.457000000
H     5.914000000    -2.070000000     3.390000000
H     5.882000000    -1.274000000     2.102000000
O    -3.986000000     2.501000000     1.014000000
H    -4.932000000     2.647000000     1.039000000
H    -3.757000000     2.570000000     0.088000000
O     2.817000000    -4.503000000     3.154000000
H     3.296000000    -3.969000000     2.521000000
H     3.429000000    -4.620000000     3.881000000
O    -0.029000000     5.136000000    -0.298000000
H    -0.945000000     5.011000000    -0.545000000
H    -0.003000000     4.934000000     0.637000000
O    -5.638000000     2.156000000    -1.843000000
H    -4.715000000     1.936000000    -1.713000000
H    -6.113000000     1.378000000    -1.550000000
O    -4.787000000     4.961000000     3.053000000
H    -4.540000000     4.508000000     3.859000000
H    -4.072000000     4.774000000     2.444000000
O     4.289000000     3.768000000     5.019000000
H     4.442000000     2.866000000     4.736000000
H     4.885000000     3.891000000     5.757000000
O    -0.006000000    -0.988000000    -6.957000000
H    -0.520000000    -0.878000000    -6.157000000
H    -0.566000000    -1.509000000    -7.532000000
O    -4.133000000     2.035000000    -4.196000000
H    -4.825000000     2.090000000    -3.536000000
H    -3.428000000     1.553000000    -3.764000000
O    -0.591000000     1.443000000     4.207000000
H    -0.608000000     1.621000000     5.148000000
H    -0.180000000     0.581000000     4.134000000
O     3.844000000     2.292000000    -3.276000000
H     4.768000000     2.534000000    -3.221000000
H     3.803000000     1.415000000    -2.895000000
O     2.979000000     5.227000000     1.724000000
H     3.387000000     5.257000000     0.858000000
H     2.829000000     4.296000000     1.886000000
O     0.421000000     4.505000000    -3.077000000
H     0.036000000     3.653000000    -3.283000000
H     0.110000000     4.701000000    -2.194000000
O     2.973000000    -3.850000000    -3.821000000
H     3.246000000    -4.661000000    -4.250000000
H     3.785000000    -3.472000000    -3.484000000
O     1.668000000     4.358000000     5.776000000
H     1.175000000     4.376000000     4.956000000
H     2.501000000     3.947000000     5.546000000
O     2.603000000     2.456000000     1.985000000
H     2.413000000     1.747000000     1.370000000
H     2.895000000     2.010000000     2.780000000
O    -2.008000000    -2.476000000     1.486000000
H    -1.118000000    -2.710000000     1.221000000
H    -1.908000000    -1.647000000     1.954000000
O     6.257000000    -0.645000000    -2.813000000
H     6.203000000    -1.532000000    -2.459000000
H     5.571000000    -0.161000000    -2.354000000
O    -5.521000000    -1.970000000    -6.701000000
H    -5.021000000    -1.553000000    -5.999000000
H    -5.369000000    -2.907000000    -6.580000000
O    -2.152000000    -0.886000000     3.795000000
H    -2.318000000     0.053000000     3.871000000
H    -3.023000000    -1.282000000     3.762000000
O     2.685000000    -0.814000000    -3.847000000
H     3.399000000    -0.569000000    -3.258000000
H     2.758000000    -1.765000000    -3.929000000
O    -6.107000000    -0.813000000    -3.244000000
H    -6.254000000    -0.856000000    -2.299000000
H    -5.269000000    -1.257000000    -3.376000000
O     0.357000000    -1.329000000     4.284000000
H     0.514000000    -2.266000000     4.398000000
H    -0.566000000    -1.270000000     4.037000000
O     1.349000000     1.086000000    -5.717000000
H     1.975000000     0.677000000    -5.119000000
H     1.063000000     0.373000000    -6.289000000
O     0.812000000    -5.677000000    -2.713000000
H     0.679000000    -5.137000000    -3.492000000
H     1.716000000    -5.982000000    -2.784000000
O    -2.028000000     5.618000000     1.783000000
H    -2.262000000     6.544000000     1.846000000
H    -2.317000000     5.357000000     0.909000000
O     3.428000000    -1.049000000     6.895000000
H     3.694000000    -0.640000000     7.719000000
H     2.509000000    -0.803000000     6.791000000
O     0.312000000    -3.320000000    -4.675000000
H     0.538000000    -4.181000000    -5.028000000
H     1.067000000    -3.076000000    -4.140000000
