144
-2806.83377
O    -2.085000000     2.200000000    -5.321000000
H    -2.331000000     1.681000000    -4.555000000
H    -2.840000000     2.139000000    -5.905000000
O    -4.819000000     3.197000000    -3.201000000
H    -4.045000000     2.633000000    -3.208000000
H    -5.303000000     2.928000000    -2.420000000
O    -2.876000000     1.836000000     5.127000000
H    -2.810000000     1.014000000     5.613000000
H    -3.514000000     1.657000000     4.437000000
O    -2.513000000     4.793000000    -1.481000000
H    -2.734000000     3.891000000    -1.249000000
H    -3.221000000     5.071000000    -2.062000000
O     5.232000000     0.399000000    -0.595000000
H     4.598000000     1.046000000    -0.902000000
H     5.125000000    -0.343000000    -1.190000000
O    -0.867000000     6.923000000    -1.040000000
H    -1.133000000     6.096000000    -1.443000000
H     0.088000000     6.919000000    -1.096000000
O    -3.678000000    -1.134000000    -6.631000000
H    -3.699000000    -0.182000000    -6.727000000
H    -3.815000000    -1.468000000    -7.517000000
O    -4.275000000    -0.441000000    -3.563000000
H    -3.541000000     0.012000000    -3.148000000
H    -4.421000000     0.036000000    -4.380000000
O    -4.295000000    -2.021000000     3.414000000
H    -3.599000000    -2.534000000     3.826000000
H    -4.049000000    -1.983000000     2.490000000
O     1.998000000    -0.686000000     6.293000000
H     1.225000000    -0.729000000     5.731000000
H     2.509000000    -1.460000000     6.059000000
O     4.206000000     2.778000000    -1.611000000
H     4.903000000     3.363000000    -1.909000000
H     3.450000000     3.352000000    -1.484000000
O     0.201000000    -3.561000000     5.494000000
H     0.978000000    -3.002000000     5.479000000
H     0.503000000    -4.400000000     5.145000000
O    -3.195000000    -2.202000000     0.915000000
H    -3.168000000    -2.851000000     0.212000000
H    -2.279000000    -1.954000000     1.047000000
O    -2.902000000    -3.177000000    -1.922000000
H    -2.989000000    -2.924000000    -2.841000000
H    -1.974000000    -3.048000000    -1.725000000
O     1.841000000     4.071000000    -1.948000000
H     0.977000000     3.756000000    -2.214000000
H     1.971000000     4.871000000    -2.458000000
O     5.810000000    -0.484000000     6.181000000
H     5.458000000     0.342000000     6.512000000
H     5.060000000    -0.918000000     5.775000000
O    -7.845000000     3.594000000    -2.945000000
H    -7.183000000     3.615000000    -2.255000000
H    -7.864000000     4.488000000    -3.286000000
O    -0.955000000     3.324000000     3.942000000
H    -1.793000000     3.026000000     4.297000000
H    -1.194000000     3.943000000     3.253000000
O     5.480000000    -1.795000000    -2.561000000
H     5.574000000    -2.326000000    -1.770000000
H     4.863000000    -2.284000000    -3.105000000
O     0.136000000    -2.936000000    -1.960000000
H     0.430000000    -2.837000000    -1.055000000
H     0.668000000    -3.652000000    -2.308000000
O     1.244000000     2.481000000    -5.088000000
H     0.743000000     2.679000000    -4.297000000
H     0.613000000     2.060000000    -5.672000000
O     3.359000000    -2.886000000     5.160000000
H     3.734000000    -3.166000000     4.325000000
H     3.835000000    -3.392000000     5.818000000
O    -1.290000000     4.653000000     1.374000000
H    -0.354000000     4.844000000     1.310000000
H    -1.568000000     4.513000000     0.469000000
O     3.550000000    -5.556000000     1.501000000
H     4.305000000    -5.063000000     1.821000000
H     3.622000000    -6.409000000     1.929000000
O     3.854000000    -6.834000000    -0.900000000
H     3.399000000    -6.819000000    -1.743000000
H     3.425000000    -6.152000000    -0.384000000
O     5.967000000    -3.470000000    -0.615000000
H     5.584000000    -3.691000000     0.234000000
H     6.260000000    -4.309000000    -0.970000000
O    -4.987000000     5.485000000     1.678000000
H    -4.284000000     5.873000000     1.157000000
H    -4.806000000     4.545000000     1.663000000
O     2.030000000     3.522000000     1.741000000
H     2.574000000     3.198000000     2.459000000
H     1.577000000     2.745000000     1.414000000
O     1.898000000    -1.695000000    -3.866000000
H     1.373000000    -2.215000000    -4.474000000
H     1.305000000    -1.504000000    -3.140000000
O    -5.359000000    -0.934000000    -1.064000000
H    -4.577000000    -1.447000000    -0.861000000
H    -5.112000000    -0.412000000    -1.828000000
O     3.662000000     2.991000000     4.441000000
H     3.445000000     2.496000000     5.231000000
H     4.091000000     2.354000000     3.869000000
O    -4.307000000     1.923000000    -6.754000000
H    -5.096000000     2.217000000    -6.297000000
H    -4.215000000     2.530000000    -7.488000000
O     3.923000000     2.253000000    -4.424000000
H     3.848000000     2.365000000    -3.476000000
H     3.024000000     2.320000000    -4.744000000
O    -5.471000000     5.804000000    -3.722000000
H    -5.592000000     6.336000000    -2.935000000
H    -5.240000000     4.936000000    -3.391000000
O     4.571000000     1.844000000     2.187000000
H     4.158000000     1.236000000     1.574000000
H     5.458000000     1.962000000     1.847000000
O    -4.690000000     0.708000000     3.150000000
H    -4.523000000    -0.235000000     3.149000000
H    -5.537000000     0.800000000     3.588000000
O     0.492000000    -5.524000000     3.497000000
H    -0.175000000    -5.392000000     2.824000000
H     1.301000000    -5.672000000     3.008000000
O    -2.502000000    -2.564000000    -4.612000000
H    -2.818000000    -1.752000000    -5.008000000
H    -2.675000000    -3.236000000    -5.271000000
O    -2.408000000    -3.325000000     4.676000000
H    -1.731000000    -3.826000000     4.221000000
H    -1.924000000    -2.768000000     5.286000000
O     4.119000000    -3.505000000    -3.940000000
H     3.185000000    -3.296000000    -3.949000000
H     4.205000000    -4.248000000    -4.537000000
O    -4.238000000     2.861000000     1.564000000
H    -3.710000000     2.570000000     0.821000000
H    -4.452000000     2.056000000     2.036000000
O    -0.295000000     0.170000000     4.557000000
H    -0.468000000     0.944000000     4.021000000
H    -0.897000000     0.251000000     5.297000000
O     3.926000000    -0.288000000    -5.336000000
H     3.434000000    -0.634000000    -4.591000000
H     4.169000000     0.599000000    -5.071000000
O    -6.363000000     3.607000000    -5.502000000
H    -6.301000000     4.560000000    -5.558000000
H    -5.979000000     3.391000000    -4.652000000
O    -0.427000000     3.306000000    -3.119000000
H    -1.019000000     2.556000000    -3.173000000
H    -0.981000000     4.064000000    -3.308000000
O     7.898000000    -0.753000000     0.334000000
H     7.115000000    -0.557000000    -0.180000000
H     8.029000000    -1.694000000     0.222000000
O    -6.264000000     2.873000000    -0.683000000
H    -5.505000000     3.036000000    -0.123000000
H    -6.854000000     2.350000000    -0.141000000
O     6.036000000    -4.812000000     2.304000000
H     6.822000000    -5.313000000     2.086000000
H     6.077000000    -4.703000000     3.254000000
