144
-2804.54134
O    -0.180000000     4.788000000    -5.219000000
H    -0.592000000     4.714000000    -6.080000000
H    -0.698000000     4.214000000    -4.655000000
O     4.869000000    -4.823000000     1.873000000
H     5.052000000    -4.071000000     2.436000000
H     4.229000000    -5.339000000     2.363000000
O     5.719000000     5.148000000    -1.244000000
H     5.262000000     5.391000000    -2.049000000
H     5.035000000     4.786000000    -0.681000000
O     1.192000000     5.172000000    -0.670000000
H     0.490000000     4.665000000    -0.262000000
H     1.464000000     4.643000000    -1.420000000
O    -0.186000000     7.295000000    -2.214000000
H    -1.051000000     7.095000000    -2.573000000
H     0.164000000     6.445000000    -1.945000000
O    -1.265000000     3.027000000    -3.500000000
H    -1.861000000     3.042000000    -2.751000000
H    -1.492000000     2.224000000    -3.970000000
O    -6.485000000     1.548000000     2.285000000
H    -5.687000000     1.837000000     2.727000000
H    -6.174000000     1.065000000     1.520000000
O    -2.547000000    -0.124000000     2.364000000
H    -1.949000000    -0.497000000     3.012000000
H    -1.978000000     0.163000000     1.650000000
O     0.861000000    -6.046000000    -0.156000000
H     1.317000000    -5.918000000     0.676000000
H     0.066000000    -5.519000000    -0.076000000
O     2.708000000    -3.839000000     4.584000000
H     2.587000000    -4.789000000     4.599000000
H     1.912000000    -3.490000000     4.984000000
O    -1.191000000    -4.845000000     0.895000000
H    -0.785000000    -4.575000000     1.719000000
H    -2.013000000    -5.259000000     1.157000000
O    -5.023000000    -1.718000000     2.348000000
H    -5.053000000    -2.634000000     2.072000000
H    -4.093000000    -1.493000000     2.333000000
O    -5.050000000     2.345000000    -0.380000000
H    -5.541000000     2.874000000     0.249000000
H    -4.132000000     2.508000000    -0.164000000
O     3.695000000     4.442000000     0.767000000
H     3.339000000     3.856000000     1.435000000
H     2.931000000     4.721000000     0.262000000
O    -2.907000000     4.890000000     1.862000000
H    -2.272000000     4.801000000     1.152000000
H    -3.537000000     5.535000000     1.540000000
O    -4.784000000    -2.182000000    -5.242000000
H    -4.618000000    -1.468000000    -5.857000000
H    -4.037000000    -2.162000000    -4.644000000
O     5.785000000     1.102000000    -1.281000000
H     5.895000000     1.803000000    -1.924000000
H     6.673000000     0.784000000    -1.119000000
O     1.883000000     3.562000000    -2.777000000
H     1.093000000     3.571000000    -3.319000000
H     2.013000000     2.639000000    -2.560000000
O    -3.679000000     7.480000000     0.792000000
H    -3.872000000     6.911000000     0.047000000
H    -4.516000000     7.895000000     1.000000000
O     4.021000000    -3.855000000    -2.428000000
H     3.504000000    -4.348000000    -1.791000000
H     4.155000000    -3.001000000    -2.018000000
O     3.120000000     2.887000000     3.262000000
H     3.739000000     2.209000000     2.991000000
H     3.069000000     2.798000000     4.214000000
O    -2.493000000     0.419000000    -4.059000000
H    -1.905000000    -0.298000000    -3.824000000
H    -3.153000000     0.426000000    -3.365000000
O    -5.317000000    -4.175000000     1.307000000
H    -5.389000000    -4.978000000     1.823000000
H    -4.702000000    -4.394000000     0.607000000
O     2.204000000    -5.918000000     2.556000000
H     1.561000000    -5.669000000     3.220000000
H     2.612000000    -6.711000000     2.903000000
O    -2.875000000     6.360000000    -3.156000000
H    -3.258000000     5.749000000    -2.527000000
H    -2.389000000     5.804000000    -3.765000000
O    -0.643000000    -1.358000000    -4.155000000
H    -1.043000000    -1.960000000    -4.783000000
H    -0.003000000    -1.893000000    -3.686000000
O     1.240000000     7.611000000     1.044000000
H     1.240000000     6.766000000     1.493000000
H     0.751000000     7.454000000     0.236000000
O    -0.719000000     5.913000000     3.805000000
H    -1.552000000     5.462000000     3.668000000
H    -0.152000000     5.586000000     3.107000000
O     0.072000000    -5.656000000     4.238000000
H    -0.029000000    -4.972000000     4.900000000
H    -0.791000000    -6.067000000     4.186000000
O    -6.232000000    -0.503000000     0.111000000
H    -5.929000000    -0.769000000     0.979000000
H    -5.948000000    -1.210000000    -0.469000000
O    -0.241000000    -8.263000000    -1.181000000
H     0.104000000    -7.408000000    -0.924000000
H     0.126000000    -8.872000000    -0.540000000
O    -4.053000000     2.215000000     2.906000000
H    -3.671000000     1.344000000     3.007000000
H    -3.332000000     2.758000000     2.588000000
O     6.072000000    -3.118000000    -0.259000000
H     6.158000000    -2.431000000     0.402000000
H     5.546000000    -3.795000000     0.166000000
O    -0.843000000    -1.503000000     4.009000000
H     0.071000000    -1.455000000     4.289000000
H    -1.295000000    -1.929000000     4.738000000
O     1.498000000     0.850000000    -2.665000000
H     1.051000000     0.289000000    -3.299000000
H     1.123000000     0.602000000    -1.820000000
O    -6.399000000     4.557000000     0.381000000
H    -6.575000000     4.977000000     1.223000000
H    -7.258000000     4.481000000    -0.034000000
O     6.341000000    -0.837000000     1.170000000
H     5.725000000    -0.490000000     1.816000000
H     6.148000000    -0.350000000     0.369000000
O     2.036000000    -6.131000000    -2.428000000
H     1.658000000    -5.929000000    -1.572000000
H     1.886000000    -7.070000000    -2.540000000
O     0.878000000     4.482000000     2.319000000
H     1.352000000     3.713000000     2.636000000
H     0.317000000     4.146000000     1.620000000
O     3.983000000    -0.831000000    -1.912000000
H     4.593000000    -0.124000000    -1.706000000
H     3.440000000    -0.481000000    -2.618000000
O    -3.328000000    -4.361000000    -0.808000000
H    -3.273000000    -5.025000000    -1.495000000
H    -2.451000000    -4.337000000    -0.426000000
O     5.100000000    -2.887000000     4.172000000
H     4.168000000    -2.943000000     4.381000000
H     5.542000000    -3.013000000     5.012000000
O    -4.730000000    -2.298000000    -1.491000000
H    -4.007000000    -2.682000000    -0.995000000
H    -5.158000000    -3.046000000    -1.909000000
O    -5.955000000     4.255000000    -3.687000000
H    -6.249000000     5.129000000    -3.944000000
H    -5.011000000     4.263000000    -3.845000000
O     1.310000000    -3.076000000    -3.284000000
H     1.636000000    -3.975000000    -3.284000000
H     2.079000000    -2.541000000    -3.479000000
O     4.500000000    -0.152000000     3.185000000
H     4.580000000    -0.823000000     3.863000000
H     5.140000000     0.516000000     3.433000000
O    -3.837000000     5.142000000    -0.765000000
H    -4.695000000     4.888000000    -0.424000000
H    -3.334000000     4.328000000    -0.777000000
O    -4.734000000     0.256000000    -2.409000000
H    -4.977000000    -0.626000000    -2.130000000
H    -4.861000000     0.797000000    -1.629000000
