144
-2809.57098
O    -2.511000000    -4.071000000    -2.565000000
H    -2.161000000    -4.959000000    -2.492000000
H    -3.251000000    -4.055000000    -1.958000000
O    -2.175000000     8.088000000    -2.493000000
H    -2.823000000     7.657000000    -3.051000000
H    -1.941000000     7.426000000    -1.843000000
O     2.819000000     2.515000000    -2.642000000
H     3.236000000     1.658000000    -2.723000000
H     1.894000000     2.319000000    -2.491000000
O     3.896000000    -6.656000000     0.415000000
H     4.117000000    -6.031000000     1.106000000
H     3.007000000    -6.415000000     0.151000000
O     1.518000000    -6.125000000    -2.063000000
H     2.193000000    -6.740000000    -2.352000000
H     1.925000000    -5.264000000    -2.154000000
O     4.375000000     0.130000000    -3.082000000
H     4.491000000    -0.612000000    -2.488000000
H     5.105000000     0.715000000    -2.880000000
O     3.471000000     4.022000000    -4.941000000
H     3.181000000     3.326000000    -4.351000000
H     3.458000000     3.620000000    -5.810000000
O     5.146000000    -5.079000000     2.275000000
H     4.861000000    -4.224000000     1.954000000
H     5.572000000    -4.891000000     3.112000000
O    -1.907000000    -1.490000000    -3.232000000
H    -1.012000000    -1.621000000    -3.545000000
H    -2.134000000    -2.315000000    -2.804000000
O     4.251000000     4.436000000    -1.096000000
H     4.527000000     4.273000000    -0.194000000
H     4.081000000     3.565000000    -1.455000000
O    -3.258000000     1.070000000     3.231000000
H    -3.499000000     0.996000000     4.155000000
H    -2.443000000     1.572000000     3.235000000
O     1.291000000    -4.402000000     4.703000000
H     2.064000000    -4.806000000     5.097000000
H     0.605000000    -5.064000000     4.789000000
O    -1.663000000     4.843000000    -6.698000000
H    -1.973000000     4.806000000    -7.603000000
H    -0.787000000     4.459000000    -6.730000000
O     3.367000000    -0.857000000     0.011000000
H     2.429000000    -0.766000000    -0.160000000
H     3.437000000    -0.867000000     0.965000000
O    -2.680000000     4.264000000    -2.747000000
H    -2.531000000     4.861000000    -2.014000000
H    -2.073000000     3.539000000    -2.593000000
O    -1.082000000    -6.820000000    -2.181000000
H    -1.062000000    -7.633000000    -2.686000000
H    -0.161000000    -6.591000000    -2.058000000
O    -2.098000000     5.970000000    -0.744000000
H    -1.413000000     5.323000000    -0.577000000
H    -2.440000000     6.186000000     0.123000000
O     1.745000000     1.520000000     4.422000000
H     2.224000000     0.952000000     5.025000000
H     1.961000000     1.182000000     3.553000000
O    -0.382000000    -2.328000000     4.134000000
H    -0.797000000    -2.925000000     3.512000000
H     0.421000000    -2.777000000     4.397000000
O     1.880000000     3.915000000     5.732000000
H     1.888000000     3.130000000     5.185000000
H     1.465000000     3.634000000     6.548000000
O     2.922000000     2.506000000     1.779000000
H     2.233000000     2.952000000     1.288000000
H     3.282000000     3.181000000     2.355000000
O     3.132000000    -1.309000000    -4.818000000
H     3.477000000    -0.579000000    -4.303000000
H     3.907000000    -1.811000000    -5.070000000
O    -2.868000000     6.155000000    -4.729000000
H    -2.494000000     6.114000000    -5.609000000
H    -2.574000000     5.348000000    -4.306000000
O    -0.106000000     5.353000000     2.888000000
H    -0.463000000     5.570000000     3.749000000
H    -0.192000000     4.401000000     2.827000000
O    -3.709000000    -1.187000000     1.632000000
H    -3.282000000    -0.970000000     0.803000000
H    -3.491000000    -0.458000000     2.212000000
O     3.789000000    -1.130000000     2.550000000
H     4.622000000    -0.729000000     2.801000000
H     3.344000000    -1.298000000     3.381000000
O    -1.080000000     2.531000000    -5.044000000
H    -1.589000000     3.238000000    -5.440000000
H    -0.652000000     2.936000000    -4.290000000
O    -5.024000000     4.200000000    -0.720000000
H    -4.250000000     3.678000000    -0.509000000
H    -5.029000000     4.243000000    -1.677000000
O    -1.612000000    -1.421000000     6.448000000
H    -1.137000000    -1.702000000     5.665000000
H    -1.068000000    -0.729000000     6.822000000
O    -3.085000000    -0.168000000    -0.983000000
H    -2.396000000     0.423000000    -0.676000000
H    -2.673000000    -0.671000000    -1.685000000
O    -0.654000000     0.572000000    -7.023000000
H    -0.607000000     1.458000000    -6.666000000
H    -1.421000000     0.184000000    -6.603000000
O    -4.952000000    -3.992000000     2.027000000
H    -4.579000000    -3.183000000     1.675000000
H    -5.772000000    -3.718000000     2.438000000
O     0.576000000     6.796000000     0.461000000
H     0.741000000     6.458000000    -0.419000000
H     0.716000000     6.044000000     1.037000000
O     2.717000000    -3.522000000    -1.588000000
H     3.316000000    -2.909000000    -2.014000000
H     2.556000000    -3.139000000    -0.725000000
O    -3.800000000    -6.213000000     2.914000000
H    -3.617000000    -6.640000000     2.077000000
H    -4.235000000    -5.395000000     2.675000000
O    -0.985000000    -5.364000000     2.738000000
H    -1.857000000    -5.188000000     3.091000000
H    -1.147000000    -5.695000000     1.854000000
O    -4.301000000     3.602000000     4.650000000
H    -3.696000000     4.174000000     4.178000000
H    -5.163000000     3.990000000     4.500000000
O    -0.707000000     2.568000000     3.868000000
H     0.074000000     2.032000000     4.004000000
H    -0.799000000     3.067000000     4.679000000
O     1.988000000    -5.659000000     2.342000000
H     1.114000000    -5.877000000     2.665000000
H     2.113000000    -4.742000000     2.587000000
O     1.472000000     7.770000000    -3.187000000
H     1.110000000     6.984000000    -2.778000000
H     1.908000000     8.233000000    -2.472000000
O     1.324000000     5.240000000    -1.870000000
H     2.055000000     4.657000000    -1.663000000
H     0.653000000     4.663000000    -2.235000000
O     5.933000000    -1.009000000    -0.943000000
H     6.641000000    -1.222000000    -0.335000000
H     5.134000000    -1.230000000    -0.465000000
O    -2.783000000     3.830000000     1.505000000
H    -1.915000000     3.843000000     1.102000000
H    -2.995000000     2.901000000     1.587000000
O     0.495000000    -1.625000000    -5.267000000
H     0.498000000    -0.901000000    -5.893000000
H     1.357000000    -1.586000000    -4.852000000
O     2.837000000    -1.444000000     5.045000000
H     2.571000000    -1.345000000     5.959000000
H     2.629000000    -2.354000000     4.833000000
O    -2.969000000     0.258000000    -5.588000000
H    -2.699000000     0.947000000    -4.981000000
H    -3.606000000    -0.260000000    -5.096000000
O    -2.156000000    -7.045000000     0.294000000
H    -1.630000000    -7.838000000     0.394000000
H    -1.761000000    -6.586000000    -0.446000000
O    -2.886000000     6.050000000     3.497000000
H    -2.871000000     5.395000000     2.800000000
H    -2.458000000     6.816000000     3.114000000
