144
-2802.79111
O    -1.813000000    -4.841000000    -2.759000000
H    -1.526000000    -4.117000000    -3.314000000
H    -1.060000000    -5.432000000    -2.726000000
O     3.152000000    -7.375000000    -1.958000000
H     3.978000000    -6.892000000    -1.961000000
H     2.524000000    -6.778000000    -2.364000000
O    -3.100000000     1.697000000    -6.582000000
H    -3.396000000     2.173000000    -5.806000000
H    -3.843000000     1.142000000    -6.820000000
O     2.187000000     3.796000000    -1.898000000
H     2.611000000     2.960000000    -2.092000000
H     1.250000000     3.609000000    -1.956000000
O     1.118000000    -6.013000000     2.384000000
H     1.441000000    -6.883000000     2.150000000
H     1.323000000    -5.468000000     1.624000000
O     3.058000000     1.415000000    -2.177000000
H     3.085000000     0.558000000    -1.751000000
H     3.977000000     1.654000000    -2.293000000
O    -0.397000000     4.726000000    -5.333000000
H    -0.789000000     5.265000000    -4.646000000
H    -0.337000000     3.852000000    -4.947000000
O     1.628000000    -0.146000000    -5.940000000
H     1.587000000     0.790000000    -5.743000000
H     1.816000000    -0.559000000    -5.097000000
O    -3.804000000    -2.842000000     0.521000000
H    -3.027000000    -3.196000000     0.954000000
H    -4.490000000    -2.885000000     1.187000000
O    -3.710000000    -2.696000000    -2.082000000
H    -3.269000000    -3.472000000    -2.430000000
H    -3.632000000    -2.783000000    -1.132000000
O     4.012000000     3.821000000     0.161000000
H     4.740000000     4.310000000    -0.223000000
H     3.394000000     3.704000000    -0.560000000
O    -4.971000000     2.531000000     3.490000000
H    -5.478000000     3.341000000     3.437000000
H    -4.465000000     2.511000000     2.678000000
O    -4.826000000     5.902000000    -0.635000000
H    -5.004000000     4.996000000    -0.890000000
H    -4.643000000     6.352000000    -1.460000000
O     3.552000000    -0.497000000    -0.248000000
H     3.110000000    -1.272000000    -0.596000000
H     3.114000000    -0.325000000     0.585000000
O    -0.913000000     5.567000000    -2.778000000
H    -0.576000000     5.829000000    -1.921000000
H    -1.006000000     4.616000000    -2.717000000
O    -0.225000000     0.781000000     6.540000000
H    -0.793000000     1.535000000     6.698000000
H     0.511000000     0.906000000     7.140000000
O    -0.155000000    -7.138000000    -1.544000000
H    -0.431000000    -7.946000000    -1.113000000
H     0.740000000    -7.315000000    -1.834000000
O    -1.704000000     8.056000000    -0.189000000
H    -2.248000000     7.327000000     0.109000000
H    -1.128000000     8.243000000     0.552000000
O     1.090000000     3.119000000     3.802000000
H     1.350000000     3.356000000     2.912000000
H     1.156000000     2.164000000     3.824000000
O    -0.201000000    -2.242000000     4.419000000
H     0.681000000    -2.608000000     4.492000000
H    -0.484000000    -2.119000000     5.325000000
O     2.495000000     5.389000000     4.320000000
H     2.901000000     5.566000000     3.471000000
H     2.018000000     4.569000000     4.192000000
O     1.835000000    -2.629000000    -4.102000000
H     2.671000000    -3.049000000    -3.902000000
H     1.368000000    -3.268000000    -4.640000000
O    -0.498000000     1.727000000    -4.997000000
H    -0.550000000     1.396000000    -5.893000000
H    -1.317000000     2.207000000    -4.871000000
O    -4.435000000     5.940000000    -3.550000000
H    -4.533000000     4.994000000    -3.440000000
H    -3.570000000     6.047000000    -3.946000000
O    -1.433000000     6.484000000     4.178000000
H    -1.350000000     5.707000000     4.731000000
H    -1.722000000     6.145000000     3.330000000
O    -5.575000000     3.395000000    -1.327000000
H    -6.306000000     2.892000000    -1.687000000
H    -5.092000000     2.766000000    -0.791000000
O     2.024000000     6.038000000    -4.898000000
H     1.152000000     5.644000000    -4.918000000
H     2.025000000     6.576000000    -4.107000000
O    -3.539000000    -3.133000000     4.856000000
H    -3.549000000    -3.847000000     5.494000000
H    -2.935000000    -2.490000000     5.227000000
O     2.445000000     7.042000000    -2.049000000
H     1.888000000     6.305000000    -1.796000000
H     2.813000000     7.359000000    -1.225000000
O     3.521000000    -0.375000000     2.567000000
H     3.953000000    -0.888000000     3.250000000
H     2.718000000    -0.056000000     2.979000000
O     4.894000000    -2.552000000     3.608000000
H     5.784000000    -2.326000000     3.880000000
H     4.695000000    -3.357000000     4.086000000
O    -2.787000000     3.361000000    -3.941000000
H    -3.596000000     2.916000000    -3.690000000
H    -2.122000000     2.996000000    -3.357000000
O    -3.536000000     2.470000000     1.009000000
H    -3.438000000     1.547000000     0.775000000
H    -2.831000000     2.913000000     0.536000000
O    -2.949000000    -0.221000000     0.506000000
H    -2.050000000    -0.315000000     0.189000000
H    -3.299000000    -1.112000000     0.497000000
O    -2.717000000    -0.411000000    -3.645000000
H    -3.304000000     0.346000000    -3.629000000
H    -3.033000000    -0.974000000    -2.938000000
O    -2.181000000    -3.736000000     2.468000000
H    -1.387000000    -3.297000000     2.773000000
H    -2.762000000    -3.736000000     3.229000000
O     0.495000000     7.188000000     2.139000000
H     0.707000000     6.264000000     2.275000000
H     0.652000000     7.597000000     2.990000000
O     3.438000000    -4.589000000    -1.037000000
H     3.856000000    -4.661000000    -0.179000000
H     4.092000000    -4.160000000    -1.588000000
O    -1.518000000    -6.570000000     3.114000000
H    -1.995000000    -5.782000000     2.855000000
H    -0.611000000    -6.393000000     2.864000000
O    -1.709000000     3.261000000     3.965000000
H    -0.764000000     3.170000000     3.847000000
H    -1.874000000     2.922000000     4.845000000
O     2.227000000    -6.021000000     4.908000000
H     1.917000000    -5.846000000     4.019000000
H     2.682000000    -5.220000000     5.165000000
O     1.328000000     4.262000000     1.349000000
H     2.135000000     4.040000000     0.884000000
H     0.627000000     3.967000000     0.767000000
O     4.746000000    -2.789000000     0.938000000
H     4.896000000    -2.588000000     1.862000000
H     4.641000000    -1.934000000     0.521000000
O    -2.092000000     4.901000000     1.936000000
H    -1.412000000     4.852000000     1.265000000
H    -2.011000000     4.079000000     2.420000000
O     2.284000000    -2.972000000     5.982000000
H     1.980000000    -2.197000000     6.455000000
H     3.227000000    -2.997000000     6.145000000
O    -0.869000000    -2.450000000    -4.207000000
H    -1.265000000    -1.579000000    -4.176000000
H     0.070000000    -2.290000000    -4.118000000
O     1.248000000     0.189000000     4.270000000
H     0.880000000     0.521000000     5.089000000
H     0.784000000    -0.633000000     4.115000000
O    -4.272000000     6.272000000     2.092000000
H    -3.443000000     5.800000000     2.169000000
H    -4.364000000     6.444000000     1.155000000
