144
-2821.54440
O     1.520000000     1.926000000     4.147000000
H     0.676000000     1.485000000     4.250000000
H     1.947000000     1.825000000     4.998000000
O     4.890000000     4.649000000     0.977000000
H     5.806000000     4.418000000     0.821000000
H     4.403000000     3.853000000     0.765000000
O     1.530000000    -5.525000000    -4.622000000
H     2.254000000    -5.479000000    -3.998000000
H     1.324000000    -4.611000000    -4.818000000
O    -0.010000000     6.655000000     4.585000000
H     0.572000000     6.076000000     4.093000000
H    -0.811000000     6.691000000     4.062000000
O     3.580000000    -5.654000000    -3.003000000
H     3.822000000    -6.572000000    -2.888000000
H     3.867000000    -5.227000000    -2.196000000
O    -1.202000000     3.997000000    -3.208000000
H    -1.412000000     3.700000000    -2.322000000
H    -1.783000000     3.489000000    -3.775000000
O    -6.195000000     2.660000000     1.397000000
H    -5.373000000     3.152000000     1.406000000
H    -5.927000000     1.745000000     1.482000000
O     2.921000000    -3.135000000    -5.094000000
H     2.128000000    -2.746000000    -5.462000000
H     3.241000000    -3.721000000    -5.780000000
O    -3.641000000    -2.861000000     0.106000000
H    -3.994000000    -2.973000000     0.989000000
H    -3.507000000    -3.753000000    -0.213000000
O     4.182000000    -3.011000000     2.745000000
H     4.815000000    -3.728000000     2.704000000
H     4.513000000    -2.364000000     2.122000000
O     4.405000000     0.801000000     0.122000000
H     4.095000000     1.426000000    -0.533000000
H     3.875000000     0.984000000     0.898000000
O    -3.832000000     2.322000000    -2.291000000
H    -4.315000000     1.647000000    -1.815000000
H    -3.120000000     2.568000000    -1.700000000
O    -2.555000000     2.087000000     2.930000000
H    -1.973000000     2.622000000     2.389000000
H    -2.507000000     1.213000000     2.540000000
O    -0.415000000    -0.448000000    -4.701000000
H     0.137000000     0.000000000    -4.060000000
H    -1.178000000    -0.736000000    -4.200000000
O    -0.913000000     0.519000000     4.508000000
H    -1.101000000     0.675000000     5.434000000
H    -1.486000000     1.127000000     4.041000000
O    -0.267000000    -3.051000000    -6.147000000
H    -0.712000000    -2.248000000    -5.876000000
H    -0.812000000    -3.756000000    -5.798000000
O    -0.624000000    -2.202000000     4.723000000
H    -0.726000000    -1.288000000     4.458000000
H     0.284000000    -2.414000000     4.507000000
O    -3.004000000     8.044000000    -0.516000000
H    -2.104000000     7.869000000    -0.240000000
H    -2.963000000     8.063000000    -1.472000000
O     4.484000000    -2.178000000    -2.815000000
H     4.231000000    -1.264000000    -2.687000000
H     3.970000000    -2.466000000    -3.569000000
O     1.333000000     4.546000000     3.415000000
H     1.320000000     3.599000000     3.552000000
H     2.258000000     4.784000000     3.469000000
O    -5.156000000     6.034000000     2.254000000
H    -6.026000000     5.669000000     2.417000000
H    -4.685000000     5.337000000     1.798000000
O    -4.662000000    -0.343000000    -1.041000000
H    -4.892000000     0.097000000    -0.224000000
H    -4.418000000    -1.230000000    -0.775000000
O     1.797000000    -3.132000000     4.146000000
H     2.166000000    -3.431000000     4.977000000
H     2.559000000    -2.884000000     3.621000000
O    -4.327000000     0.495000000    -4.848000000
H    -3.582000000     1.055000000    -4.626000000
H    -4.975000000     0.678000000    -4.167000000
O    -1.247000000     6.188000000     1.902000000
H    -1.341000000     5.243000000     1.789000000
H    -0.310000000     6.350000000     1.796000000
O    -2.728000000    -2.404000000    -3.836000000
H    -3.247000000    -1.614000000    -3.987000000
H    -3.314000000    -3.124000000    -4.068000000
O     2.988000000    -6.058000000     1.174000000
H     3.371000000    -5.474000000     0.519000000
H     3.655000000    -6.121000000     1.857000000
O    -3.019000000    -5.665000000    -3.002000000
H    -2.435000000    -6.324000000    -3.377000000
H    -2.642000000    -5.472000000    -2.143000000
O    -4.481000000     3.396000000     4.489000000
H    -4.131000000     3.124000000     5.337000000
H    -3.897000000     2.991000000     3.848000000
O    -3.252000000     7.769000000     2.698000000
H    -2.428000000     7.403000000     2.379000000
H    -3.917000000     7.136000000     2.428000000
O    -1.930000000    -5.640000000    -0.646000000
H    -0.990000000    -5.464000000    -0.624000000
H    -2.160000000    -5.825000000     0.265000000
O    -1.903000000     1.979000000    -5.185000000
H    -1.400000000     1.165000000    -5.186000000
H    -1.882000000     2.275000000    -6.095000000
O    -0.997000000    -7.283000000     1.577000000
H    -0.480000000    -6.484000000     1.680000000
H    -1.607000000    -7.271000000     2.315000000
O    -2.569000000    -0.106000000     1.485000000
H    -2.698000000    -1.045000000     1.621000000
H    -1.905000000    -0.052000000     0.797000000
O    -4.588000000     4.307000000    -3.716000000
H    -4.495000000     4.956000000    -3.018000000
H    -4.405000000     3.470000000    -3.291000000
O     5.451000000    -1.889000000     0.431000000
H     5.230000000    -1.019000000     0.099000000
H     6.328000000    -2.061000000     0.089000000
O     3.884000000     1.737000000     2.837000000
H     4.375000000     1.841000000     3.651000000
H     2.966000000     1.749000000     3.107000000
O    -0.780000000     6.904000000    -3.760000000
H    -0.116000000     7.100000000    -3.099000000
H    -1.016000000     5.990000000    -3.598000000
O     4.162000000     0.644000000    -3.003000000
H     3.489000000     0.864000000    -2.359000000
H     4.925000000     1.157000000    -2.739000000
O    -4.867000000     5.989000000    -1.627000000
H    -4.213000000     6.657000000    -1.419000000
H    -5.702000000     6.456000000    -1.602000000
O     2.450000000     2.111000000    -1.380000000
H     2.289000000     3.051000000    -1.460000000
H     1.639000000     1.703000000    -1.684000000
O     1.468000000     6.853000000    -1.659000000
H     2.111000000     6.949000000    -0.956000000
H     1.332000000     5.909000000    -1.732000000
O     4.507000000    -4.214000000    -0.848000000
H     4.898000000    -3.676000000    -0.159000000
H     4.333000000    -3.600000000    -1.561000000
O     1.384000000     4.809000000     0.307000000
H     1.636000000     5.534000000     0.879000000
H     0.737000000     4.318000000     0.814000000
O     1.113000000    -5.786000000     3.135000000
H     1.052000000    -4.891000000     3.469000000
H     1.745000000    -5.732000000     2.418000000
O     0.669000000     1.652000000    -3.434000000
H     0.235000000     2.390000000    -3.005000000
H     1.348000000     2.055000000    -3.975000000
O    -3.851000000     4.199000000     0.711000000
H    -2.949000000     3.892000000     0.616000000
H    -4.130000000     4.404000000    -0.181000000
O    -6.475000000     0.479000000    -2.866000000
H    -6.934000000     1.127000000    -2.332000000
H    -6.002000000    -0.062000000    -2.233000000
