144
-2800.08694
O     2.457000000    -5.422000000    -3.410000000
H     2.962000000    -5.140000000    -2.648000000
H     3.040000000    -5.268000000    -4.154000000
O     1.395000000    -7.693000000    -1.000000000
H     0.959000000    -7.744000000    -1.851000000
H     1.403000000    -6.759000000    -0.791000000
O    -1.649000000    -4.029000000    -5.192000000
H    -1.811000000    -3.085000000    -5.212000000
H    -1.025000000    -4.180000000    -5.902000000
O    -4.873000000     5.187000000     1.889000000
H    -3.990000000     5.262000000     1.527000000
H    -5.340000000     4.628000000     1.268000000
O    -5.356000000    -3.158000000    -1.573000000
H    -4.737000000    -3.876000000    -1.442000000
H    -6.217000000    -3.573000000    -1.523000000
O     3.667000000     0.158000000    -1.552000000
H     4.067000000    -0.109000000    -0.724000000
H     2.829000000     0.545000000    -1.299000000
O     6.900000000     1.071000000     2.311000000
H     6.828000000     0.154000000     2.577000000
H     5.998000000     1.341000000     2.138000000
O    -0.035000000    -6.403000000    -4.325000000
H     0.849000000    -6.112000000    -4.099000000
H    -0.208000000    -6.003000000    -5.177000000
O    -5.280000000     3.446000000    -3.560000000
H    -4.854000000     2.696000000    -3.975000000
H    -4.802000000     3.570000000    -2.740000000
O     0.250000000    -0.856000000     3.864000000
H     0.393000000     0.040000000     4.170000000
H     1.012000000    -1.047000000     3.318000000
O    -2.376000000    -1.196000000    -5.746000000
H    -1.832000000    -0.824000000    -6.440000000
H    -2.396000000    -0.520000000    -5.069000000
O    -4.454000000     0.375000000    -1.926000000
H    -5.149000000     1.004000000    -1.730000000
H    -4.915000000    -0.449000000    -2.086000000
O     0.732000000     5.779000000    -0.682000000
H     1.245000000     6.398000000    -0.162000000
H     0.424000000     5.131000000    -0.047000000
O    -3.975000000     3.610000000    -1.125000000
H    -4.453000000     3.172000000    -0.420000000
H    -3.081000000     3.690000000    -0.794000000
O    -4.441000000     2.129000000     1.261000000
H    -3.627000000     2.229000000     1.754000000
H    -4.437000000     1.215000000     0.976000000
O    -2.572000000    -5.331000000    -2.480000000
H    -2.050000000    -4.682000000    -2.950000000
H    -2.560000000    -6.103000000    -3.046000000
O     4.568000000     1.703000000     1.505000000
H     4.081000000     1.163000000     2.127000000
H     3.921000000     2.321000000     1.165000000
O     2.765000000     3.792000000     1.189000000
H     1.845000000     3.733000000     0.932000000
H     2.741000000     4.085000000     2.100000000
O     0.981000000     1.539000000     5.392000000
H     1.456000000     2.346000000     5.591000000
H     0.825000000     1.136000000     6.246000000
O    -0.858000000     8.136000000     1.462000000
H    -0.744000000     8.099000000     2.412000000
H     0.031000000     8.229000000     1.118000000
O     1.272000000     6.244000000    -3.356000000
H     0.476000000     5.990000000    -3.824000000
H     1.023000000     6.228000000    -2.432000000
O    -3.822000000    -0.472000000     0.640000000
H    -3.001000000    -0.937000000     0.805000000
H    -3.795000000    -0.264000000    -0.294000000
O    -2.484000000    -2.109000000     3.390000000
H    -1.719000000    -1.650000000     3.736000000
H    -2.139000000    -2.944000000     3.074000000
O     0.860000000    -3.405000000     3.369000000
H     0.056000000    -3.830000000     3.071000000
H     0.605000000    -2.496000000     3.529000000
O     2.004000000     7.703000000     0.580000000
H     2.732000000     7.210000000     0.959000000
H     2.422000000     8.422000000     0.106000000
O    -0.920000000     3.217000000    -2.945000000
H    -0.735000000     4.126000000    -3.181000000
H    -1.292000000     3.269000000    -2.065000000
O    -6.386000000    -1.289000000    -3.293000000
H    -5.868000000    -1.991000000    -2.901000000
H    -5.990000000    -1.150000000    -4.153000000
O    -2.316000000     1.174000000    -3.923000000
H    -1.872000000     1.823000000    -3.378000000
H    -2.880000000     0.696000000    -3.315000000
O    -1.691000000    -4.631000000     2.635000000
H    -2.228000000    -5.235000000     3.148000000
H    -2.017000000    -4.724000000     1.739000000
O    -2.368000000     5.887000000     0.828000000
H    -1.744000000     6.612000000     0.875000000
H    -1.884000000     5.182000000     0.398000000
O     2.797000000    -2.043000000    -3.507000000
H     2.726000000    -1.097000000    -3.381000000
H     2.857000000    -2.399000000    -2.621000000
O     4.429000000    -5.703000000    -0.263000000
H     4.923000000    -6.485000000    -0.016000000
H     3.600000000    -5.784000000     0.208000000
O    -6.529000000     1.942000000    -1.104000000
H    -6.618000000     2.445000000    -0.294000000
H    -6.999000000     2.459000000    -1.759000000
O     4.536000000     4.395000000    -1.558000000
H     4.841000000     5.290000000    -1.706000000
H     4.205000000     4.400000000    -0.660000000
O    -1.941000000     1.567000000     3.389000000
H    -2.848000000     1.260000000     3.369000000
H    -1.481000000     0.921000000     3.924000000
O     2.154000000    -5.616000000     2.298000000
H     3.011000000    -5.919000000     2.598000000
H     2.187000000    -4.664000000     2.399000000
O    -4.972000000     3.006000000     3.925000000
H    -5.667000000     2.370000000     4.091000000
H    -4.929000000     3.070000000     2.971000000
O    -3.870000000     6.321000000    -2.513000000
H    -3.518000000     5.690000000    -1.885000000
H    -4.294000000     6.987000000    -1.971000000
O    -1.515000000     4.135000000     3.197000000
H    -0.936000000     4.196000000     2.437000000
H    -1.520000000     3.204000000     3.419000000
O     1.287000000    -4.892000000     5.497000000
H     1.383000000    -4.201000000     6.153000000
H     1.411000000    -4.446000000     4.659000000
O     1.084000000     1.106000000    -3.628000000
H     1.501000000     1.909000000    -3.940000000
H     0.265000000     1.402000000    -3.229000000
O     3.404000000    -0.370000000     3.335000000
H     3.668000000    -1.290000000     3.362000000
H     3.436000000    -0.085000000     4.248000000
O    -3.193000000     2.638000000    -6.282000000
H    -2.784000000     2.221000000    -5.524000000
H    -2.816000000     3.518000000    -6.304000000
O    -0.421000000     5.507000000     5.553000000
H    -0.571000000     4.922000000     4.810000000
H     0.094000000     6.228000000     5.190000000
O     5.668000000    -1.642000000     0.631000000
H     6.114000000    -1.649000000     1.478000000
H     6.277000000    -1.195000000     0.043000000
O    -3.364000000    -4.867000000     0.227000000
H    -3.474000000    -5.806000000     0.376000000
H    -3.018000000    -4.806000000    -0.664000000
O     4.711000000    -3.242000000    -1.407000000
H     5.004000000    -2.696000000    -0.678000000
H     4.410000000    -4.051000000    -0.994000000
O     0.955000000    -3.151000000    -5.992000000
H     0.763000000    -2.287000000    -6.357000000
H     1.471000000    -2.969000000    -5.206000000
