144
-2790.78840
O    -2.397000000     6.522000000    -3.419000000
H    -3.034000000     6.552000000    -2.706000000
H    -2.927000000     6.433000000    -4.211000000
O    -2.900000000    -5.715000000     3.713000000
H    -1.991000000    -5.427000000     3.627000000
H    -3.416000000    -4.993000000     3.353000000
O     0.259000000    -8.154000000    -0.673000000
H     0.952000000    -8.814000000    -0.670000000
H     0.623000000    -7.426000000    -1.177000000
O     4.692000000     2.484000000     1.934000000
H     5.342000000     2.624000000     1.246000000
H     3.966000000     2.044000000     1.492000000
O    -1.349000000     4.114000000    -3.352000000
H    -1.604000000     5.035000000    -3.395000000
H    -1.409000000     3.891000000    -2.423000000
O     1.120000000    -5.076000000    -4.816000000
H     1.963000000    -4.624000000    -4.793000000
H     0.471000000    -4.372000000    -4.805000000
O    -4.478000000     6.490000000    -1.792000000
H    -4.338000000     6.846000000    -0.914000000
H    -5.411000000     6.625000000    -1.958000000
O     0.490000000     1.980000000    -3.987000000
H     1.333000000     2.150000000    -3.567000000
H    -0.052000000     2.732000000    -3.749000000
O    -3.885000000    -1.843000000    -4.029000000
H    -4.602000000    -1.865000000    -4.662000000
H    -3.248000000    -1.238000000    -4.409000000
O     3.476000000    -3.961000000    -4.753000000
H     3.770000000    -4.127000000    -3.857000000
H     4.282000000    -3.791000000    -5.241000000
O     4.819000000    -3.747000000     1.315000000
H     5.692000000    -3.360000000     1.385000000
H     4.241000000    -3.113000000     1.740000000
O    -4.555000000     0.906000000     1.721000000
H    -4.827000000     1.394000000     0.945000000
H    -5.322000000     0.918000000     2.294000000
O    -2.214000000    -0.680000000    -5.704000000
H    -2.059000000     0.241000000    -5.493000000
H    -2.512000000    -0.671000000    -6.614000000
O     7.113000000    -1.883000000     1.282000000
H     7.861000000    -1.743000000     1.862000000
H     6.414000000    -1.350000000     1.662000000
O    -3.989000000     1.036000000    -2.938000000
H    -3.895000000     1.668000000    -2.225000000
H    -3.510000000     1.426000000    -3.669000000
O     5.578000000    -0.230000000    -3.909000000
H     4.914000000    -0.509000000    -3.279000000
H     6.403000000    -0.283000000    -3.427000000
O     3.199000000     4.358000000     3.926000000
H     3.965000000     4.929000000     3.968000000
H     3.459000000     3.651000000     3.336000000
O    -3.377000000    -1.464000000     1.978000000
H    -2.666000000    -1.341000000     1.349000000
H    -3.851000000    -0.633000000     1.969000000
O     2.123000000     2.629000000     6.204000000
H     1.384000000     2.309000000     6.722000000
H     1.743000000     3.294000000     5.631000000
O    -6.907000000     2.358000000    -0.915000000
H    -6.080000000     2.786000000    -1.139000000
H    -7.227000000     2.007000000    -1.746000000
O     0.371000000    -2.155000000     5.110000000
H     0.625000000    -3.076000000     5.165000000
H     0.874000000    -1.726000000     5.802000000
O    -0.178000000     5.581000000    -0.456000000
H    -0.450000000     4.792000000     0.012000000
H    -0.687000000     6.285000000    -0.054000000
O    -0.602000000     2.407000000     5.701000000
H    -0.774000000     2.629000000     4.786000000
H    -1.466000000     2.228000000     6.070000000
O     3.371000000    -2.087000000     3.339000000
H     3.558000000    -1.154000000     3.438000000
H     2.418000000    -2.149000000     3.406000000
O     5.402000000    -0.096000000     3.032000000
H     5.496000000     0.784000000     2.667000000
H     5.828000000    -0.047000000     3.887000000
O     0.218000000     3.679000000     3.396000000
H     1.076000000     4.055000000     3.201000000
H    -0.319000000     3.899000000     2.634000000
O    -2.495000000     2.100000000    -5.012000000
H    -2.636000000     2.485000000    -5.877000000
H    -2.213000000     2.834000000    -4.466000000
O     0.128000000     6.699000000    -2.997000000
H    -0.795000000     6.942000000    -3.069000000
H     0.179000000     6.188000000    -2.189000000
O     1.841000000     4.090000000    -1.748000000
H     1.264000000     4.489000000    -2.399000000
H     1.524000000     4.425000000    -0.910000000
O    -2.470000000    -2.046000000     5.386000000
H    -1.533000000    -2.161000000     5.229000000
H    -2.821000000    -1.761000000     4.542000000
O    -4.395000000     3.410000000    -1.350000000
H    -4.506000000     4.358000000    -1.274000000
H    -3.490000000     3.252000000    -1.081000000
O     1.813000000    -2.858000000    -6.691000000
H     2.676000000    -3.025000000    -6.312000000
H     1.230000000    -2.783000000    -5.936000000
O     5.248000000    -6.035000000     0.281000000
H     5.152000000    -6.694000000     0.969000000
H     4.974000000    -5.216000000     0.694000000
O    -3.351000000     4.156000000     2.298000000
H    -2.654000000     4.141000000     1.642000000
H    -3.199000000     3.374000000     2.829000000
O    -0.223000000    -5.223000000     3.739000000
H     0.490000000    -4.885000000     4.280000000
H     0.108000000    -6.053000000     3.396000000
O    -0.774000000    -2.708000000    -4.547000000
H     0.003000000    -2.177000000    -4.377000000
H    -1.365000000    -2.123000000    -5.021000000
O     2.610000000     1.520000000     0.446000000
H     1.659000000     1.606000000     0.380000000
H     2.952000000     2.289000000    -0.009000000
O     0.320000000     2.305000000    -6.861000000
H     0.185000000     2.304000000    -5.913000000
H     0.625000000     1.420000000    -7.060000000
O     3.629000000    -0.911000000    -2.250000000
H     3.996000000    -0.723000000    -1.387000000
H     2.704000000    -1.093000000    -2.083000000
O    -0.708000000     5.210000000     6.235000000
H    -0.720000000     4.562000000     5.531000000
H     0.191000000     5.539000000     6.243000000
O     1.583000000    -6.868000000    -2.928000000
H     0.999000000    -6.254000000    -3.372000000
H     2.383000000    -6.366000000    -2.771000000
O    -5.101000000     5.614000000     4.046000000
H    -5.717000000     4.946000000     4.346000000
H    -4.542000000     5.159000000     3.416000000
O     3.131000000    -5.708000000     3.406000000
H     3.633000000    -6.418000000     3.007000000
H     3.222000000    -4.977000000     2.794000000
O     1.831000000    -4.651000000     5.333000000
H     2.478000000    -5.060000000     4.758000000
H     2.167000000    -4.800000000     6.217000000
O     1.114000000    -0.763000000    -4.461000000
H     2.021000000    -0.469000000    -4.378000000
H     0.591000000     0.010000000    -4.248000000
O     4.435000000    -5.612000000    -2.302000000
H     5.216000000    -5.967000000    -2.727000000
H     4.664000000    -5.572000000    -1.374000000
O    -2.765000000    -4.434000000    -3.956000000
H    -3.385000000    -3.717000000    -3.817000000
H    -1.980000000    -4.009000000    -4.300000000
O    -3.454000000    -1.713000000    -1.307000000
H    -2.540000000    -1.985000000    -1.222000000
H    -3.473000000    -1.189000000    -2.108000000
