144
-2834.07005
O     4.127000000    -2.455000000     1.234000000
H     3.731000000    -2.025000000     1.992000000
H     3.515000000    -3.156000000     1.010000000
O     0.364000000     2.947000000    -4.271000000
H     0.088000000     2.062000000    -4.031000000
H     0.493000000     2.909000000    -5.219000000
O    -4.828000000     2.962000000    -1.005000000
H    -4.453000000     3.720000000    -1.454000000
H    -5.566000000     2.699000000    -1.554000000
O     2.465000000    -5.006000000    -3.907000000
H     3.165000000    -5.258000000    -4.508000000
H     2.860000000    -5.073000000    -3.037000000
O     2.877000000    -1.768000000    -3.055000000
H     2.044000000    -1.944000000    -3.492000000
H     3.524000000    -1.772000000    -3.761000000
O    -3.288000000    -4.996000000    -2.008000000
H    -2.443000000    -4.878000000    -2.443000000
H    -3.853000000    -5.377000000    -2.680000000
O     2.657000000    -4.736000000     4.197000000
H     2.394000000    -5.639000000     4.020000000
H     2.537000000    -4.284000000     3.362000000
O    -3.658000000     5.871000000    -1.964000000
H    -3.272000000     6.677000000    -2.306000000
H    -2.935000000     5.428000000    -1.520000000
O    -0.339000000    -0.168000000     3.754000000
H     0.534000000     0.225000000     3.773000000
H    -0.831000000     0.309000000     4.422000000
O    -1.906000000    -6.351000000    -4.472000000
H    -1.616000000    -6.972000000    -3.804000000
H    -1.299000000    -5.615000000    -4.394000000
O    -0.682000000    -4.549000000     2.819000000
H    -0.831000000    -3.804000000     2.236000000
H    -1.171000000    -4.333000000     3.613000000
O    -3.735000000    -3.481000000     2.542000000
H    -3.725000000    -4.067000000     1.786000000
H    -2.918000000    -2.987000000     2.474000000
O    -1.271000000     0.645000000    -6.180000000
H    -2.165000000     0.549000000    -6.508000000
H    -1.357000000     0.588000000    -5.229000000
O     2.538000000    -4.758000000     1.097000000
H     2.911000000    -5.455000000     1.637000000
H     1.863000000    -5.193000000     0.577000000
O    -1.580000000     1.972000000     5.142000000
H    -1.388000000     1.993000000     6.080000000
H    -2.533000000     2.042000000     5.091000000
O    -5.329000000     0.199000000    -3.617000000
H    -4.554000000     0.757000000    -3.549000000
H    -5.516000000    -0.062000000    -2.715000000
O     1.878000000     5.550000000     3.528000000
H     2.549000000     5.200000000     4.115000000
H     1.512000000     4.779000000     3.096000000
O    -3.406000000     3.219000000     1.719000000
H    -3.778000000     2.975000000     0.871000000
H    -2.459000000     3.204000000     1.579000000
O    -5.161000000    -0.378000000    -0.901000000
H    -4.418000000    -0.084000000    -0.374000000
H    -5.555000000    -1.084000000    -0.389000000
O    -0.465000000     4.202000000     3.929000000
H    -0.695000000     4.199000000     3.000000000
H    -0.817000000     3.379000000     4.266000000
O     2.962000000     6.451000000     0.768000000
H     3.171000000     6.286000000    -0.151000000
H     3.565000000     7.147000000     1.030000000
O    -0.041000000    -7.293000000     2.016000000
H    -0.305000000    -6.457000000     2.398000000
H     0.287000000    -7.066000000     1.146000000
O     6.071000000     2.879000000     0.730000000
H     6.429000000     2.203000000     1.305000000
H     5.296000000     3.200000000     1.192000000
O    -0.194000000    -4.426000000    -4.231000000
H     0.692000000    -4.733000000    -4.041000000
H    -0.086000000    -3.501000000    -4.453000000
O    -3.944000000     0.112000000     1.511000000
H    -3.092000000    -0.100000000     1.891000000
H    -4.297000000     0.797000000     2.080000000
O    -1.544000000    -1.969000000     2.063000000
H    -1.207000000    -1.719000000     1.203000000
H    -1.133000000    -1.354000000     2.670000000
O     2.758000000     0.764000000    -2.087000000
H     2.890000000    -0.097000000    -2.483000000
H     1.938000000     0.680000000    -1.600000000
O     6.141000000    -1.143000000     3.207000000
H     6.350000000    -0.940000000     4.119000000
H     5.185000000    -1.127000000     3.171000000
O     2.712000000     3.452000000    -1.162000000
H     3.512000000     3.425000000    -0.637000000
H     2.478000000     2.533000000    -1.289000000
O    -0.912000000     0.537000000    -3.336000000
H    -1.832000000     0.387000000    -3.553000000
H    -0.739000000    -0.054000000    -2.604000000
O    -1.072000000     3.826000000    -1.867000000
H    -0.489000000     4.408000000    -1.380000000
H    -0.579000000     3.600000000    -2.656000000
O     0.184000000    -1.967000000    -5.024000000
H     0.678000000    -1.506000000    -5.702000000
H    -0.691000000    -1.581000000    -5.061000000
O    -4.571000000     4.542000000     3.805000000
H    -4.124000000     3.894000000     3.260000000
H    -4.705000000     5.292000000     3.225000000
O     3.031000000    -1.132000000     3.334000000
H     2.684000000    -1.373000000     4.193000000
H     2.868000000    -0.191000000     3.266000000
O    -2.396000000    -1.615000000    -4.328000000
H    -2.621000000    -2.437000000    -3.891000000
H    -3.064000000    -1.514000000    -5.006000000
O     0.789000000    -6.694000000    -0.487000000
H     0.219000000    -6.991000000    -1.196000000
H     1.544000000    -7.281000000    -0.525000000
O     0.810000000     5.368000000    -0.548000000
H     1.542000000     4.928000000    -0.981000000
H     0.786000000     4.986000000     0.329000000
O     0.901000000     4.625000000     6.330000000
H     0.152000000     5.071000000     6.725000000
H     0.674000000     4.551000000     5.403000000
O    -0.885000000     6.942000000     4.157000000
H    -1.335000000     6.134000000     4.405000000
H    -0.106000000     6.648000000     3.685000000
O     3.790000000     2.928000000     4.754000000
H     4.052000000     3.375000000     3.949000000
H     4.603000000     2.553000000     5.094000000
O    -1.656000000     6.080000000     0.898000000
H    -1.444000000     5.175000000     1.128000000
H    -0.805000000     6.508000000     0.802000000
O    -4.085000000    -5.122000000     0.565000000
H    -4.934000000    -5.564000000     0.583000000
H    -3.956000000    -4.889000000    -0.354000000
O    -2.650000000    -7.303000000     0.476000000
H    -1.711000000    -7.382000000     0.646000000
H    -2.832000000    -6.368000000     0.566000000
O     3.821000000    -4.337000000    -1.331000000
H     3.414000000    -4.605000000    -0.508000000
H     3.514000000    -3.441000000    -1.470000000
O     6.017000000    -2.164000000    -0.886000000
H     5.477000000    -1.888000000    -0.146000000
H     5.390000000    -2.350000000    -1.585000000
O     1.981000000     1.280000000     3.728000000
H     2.572000000     1.763000000     4.305000000
H     1.646000000     1.941000000     3.121000000
O    -3.320000000     2.043000000    -3.197000000
H    -3.832000000     2.748000000    -3.594000000
H    -2.567000000     2.485000000    -2.804000000
O     3.741000000     3.993000000     1.751000000
H     3.549000000     4.863000000     1.403000000
H     2.884000000     3.579000000     1.849000000
