144
-2822.26888
O     5.641000000    -0.331000000    -1.633000000
H     5.584000000    -0.662000000    -2.530000000
H     5.396000000    -1.078000000    -1.087000000
O    -5.060000000     5.761000000     0.958000000
H    -4.785000000     6.563000000     1.402000000
H    -5.320000000     6.049000000     0.083000000
O     0.251000000     7.706000000     2.113000000
H     0.176000000     7.596000000     1.165000000
H     1.059000000     7.249000000     2.343000000
O    -3.484000000    -3.737000000    -2.466000000
H    -2.737000000    -3.988000000    -3.010000000
H    -4.237000000    -3.793000000    -3.054000000
O     4.788000000    -2.650000000     4.774000000
H     4.137000000    -2.771000000     4.083000000
H     4.375000000    -3.010000000     5.559000000
O    -2.807000000     7.778000000    -1.580000000
H    -2.220000000     8.518000000    -1.738000000
H    -2.463000000     7.365000000    -0.787000000
O    -0.073000000     2.348000000     4.171000000
H     0.241000000     3.173000000     3.801000000
H    -0.899000000     2.575000000     4.597000000
O    -1.087000000    -4.434000000    -3.497000000
H    -1.160000000    -5.109000000    -2.821000000
H    -0.204000000    -4.543000000    -3.849000000
O     3.231000000    -3.583000000     2.177000000
H     2.492000000    -3.690000000     2.776000000
H     3.532000000    -4.475000000     2.006000000
O    -1.248000000    -4.610000000     4.258000000
H    -1.364000000    -5.130000000     5.053000000
H    -1.665000000    -3.772000000     4.456000000
O    -3.630000000    -2.437000000     3.488000000
H    -3.687000000    -1.536000000     3.170000000
H    -3.064000000    -2.879000000     2.856000000
O     4.462000000    -2.603000000     0.002000000
H     3.786000000    -2.619000000     0.679000000
H     4.024000000    -2.933000000    -0.782000000
O     0.628000000     4.789000000     2.755000000
H    -0.255000000     5.157000000     2.797000000
H     0.691000000     4.417000000     1.876000000
O    -5.991000000     1.505000000    -0.919000000
H    -5.480000000     1.461000000    -1.727000000
H    -5.393000000     1.889000000    -0.278000000
O     1.052000000     2.625000000    -4.460000000
H     0.537000000     2.315000000    -5.205000000
H     1.034000000     1.899000000    -3.837000000
O    -4.125000000     2.940000000     0.525000000
H    -4.414000000     3.830000000     0.326000000
H    -3.173000000     2.971000000     0.431000000
O    -4.198000000    -1.109000000     0.784000000
H    -3.634000000    -0.335000000     0.788000000
H    -4.648000000    -1.073000000    -0.060000000
O     0.627000000     6.492000000    -0.421000000
H     0.785000000     5.583000000    -0.167000000
H     0.053000000     6.431000000    -1.185000000
O     3.378000000     6.490000000    -0.956000000
H     2.754000000     7.203000000    -0.825000000
H     4.198000000     6.817000000    -0.585000000
O     1.118000000    -2.155000000     5.572000000
H     0.242000000    -1.925000000     5.883000000
H     1.222000000    -1.659000000     4.760000000
O    -0.625000000    -1.908000000    -3.842000000
H    -0.881000000    -2.824000000    -3.735000000
H     0.252000000    -1.948000000    -4.224000000
O     6.121000000     3.859000000     1.157000000
H     6.338000000     2.932000000     1.253000000
H     5.234000000     3.861000000     0.796000000
O    -6.650000000    -1.932000000    -0.690000000
H    -6.573000000    -2.886000000    -0.730000000
H    -5.949000000    -1.612000000    -1.258000000
O     1.601000000    -4.392000000    -4.628000000
H     1.824000000    -5.050000000    -5.286000000
H     2.337000000    -3.780000000    -4.644000000
O    -3.449000000     1.430000000     2.992000000
H    -3.032000000     2.132000000     3.491000000
H    -3.701000000     1.841000000     2.165000000
O    -1.861000000    -6.175000000    -1.658000000
H    -2.048000000    -5.874000000    -0.768000000
H    -1.432000000    -7.023000000    -1.538000000
O     1.402000000     0.061000000     3.909000000
H     1.880000000     0.268000000     3.105000000
H     0.850000000     0.828000000     4.063000000
O     1.653000000    -5.053000000     4.094000000
H     0.699000000    -5.122000000     4.093000000
H     1.894000000    -5.081000000     5.020000000
O     4.787000000     2.777000000    -2.042000000
H     5.027000000     1.868000000    -1.864000000
H     4.488000000     3.116000000    -1.198000000
O     4.965000000     2.877000000     4.570000000
H     4.784000000     1.967000000     4.333000000
H     5.920000000     2.932000000     4.599000000
O     2.478000000     6.111000000    -3.589000000
H     2.786000000     5.257000000    -3.893000000
H     2.824000000     6.186000000    -2.699000000
O     1.554000000     0.460000000    -2.924000000
H     0.639000000     0.228000000    -2.768000000
H     1.998000000     0.251000000    -2.102000000
O    -2.264000000     4.196000000    -2.424000000
H    -1.658000000     3.821000000    -1.785000000
H    -1.834000000     4.998000000    -2.721000000
O    -4.797000000    -6.089000000     1.203000000
H    -5.690000000    -5.880000000     0.931000000
H    -4.292000000    -5.304000000     0.991000000
O     4.321000000    -0.042000000     4.787000000
H     3.388000000    -0.201000000     4.641000000
H     4.730000000    -0.901000000     4.683000000
O    -2.494000000     0.156000000    -4.140000000
H    -1.748000000    -0.390000000    -3.893000000
H    -2.310000000     0.419000000    -5.042000000
O     3.539000000    -4.519000000    -2.124000000
H     3.077000000    -4.352000000    -2.946000000
H     3.184000000    -5.353000000    -1.815000000
O    -4.438000000     5.253000000    -4.276000000
H    -3.975000000     4.765000000    -3.595000000
H    -5.363000000     5.172000000    -4.041000000
O    -0.269000000     6.082000000    -3.335000000
H     0.641000000     6.083000000    -3.631000000
H    -0.688000000     6.775000000    -3.845000000
O    -1.909000000     5.436000000     1.684000000
H    -1.708000000     4.797000000     1.000000000
H    -2.716000000     5.113000000     2.085000000
O    -3.335000000    -3.755000000     0.170000000
H    -3.666000000    -2.904000000     0.460000000
H    -3.157000000    -3.636000000    -0.763000000
O    -4.070000000    -1.193000000    -2.163000000
H    -3.751000000    -2.080000000    -2.332000000
H    -3.546000000    -0.637000000    -2.740000000
O     6.347000000    -4.023000000     1.150000000
H     5.537000000    -3.743000000     0.724000000
H     6.056000000    -4.553000000     1.892000000
O    -2.814000000     3.678000000     4.417000000
H    -3.722000000     3.965000000     4.321000000
H    -2.413000000     4.338000000     4.983000000
O    -1.809000000    -5.652000000     1.481000000
H    -1.530000000    -5.372000000     2.353000000
H    -2.063000000    -4.842000000     1.039000000
O     2.785000000     4.708000000     4.334000000
H     2.139000000     4.867000000     3.646000000
H     3.395000000     4.079000000     3.949000000
O    -4.124000000     2.211000000    -3.076000000
H    -3.467000000     2.832000000    -2.761000000
H    -3.661000000     1.679000000    -3.723000000
O     3.246000000     3.959000000    -0.019000000
H     3.248000000     4.839000000    -0.394000000
H     2.320000000     3.757000000     0.114000000
