144
-2822.30104
O     3.478000000    -2.543000000    -2.368000000
H     3.878000000    -3.311000000    -2.777000000
H     2.985000000    -2.896000000    -1.628000000
O    -2.847000000     3.181000000    -4.530000000
H    -2.629000000     2.563000000    -3.832000000
H    -2.170000000     3.042000000    -5.193000000
O     2.917000000     0.402000000     5.603000000
H     2.405000000     1.202000000     5.723000000
H     3.240000000     0.458000000     4.704000000
O     0.770000000     2.117000000     4.036000000
H     1.205000000     1.645000000     3.326000000
H     1.091000000     3.016000000     3.958000000
O     0.242000000    -4.880000000     0.541000000
H     1.129000000    -4.569000000     0.723000000
H    -0.176000000    -4.154000000     0.078000000
O    -1.073000000    -5.719000000     2.970000000
H    -0.529000000    -6.502000000     2.890000000
H    -0.883000000    -5.213000000     2.180000000
O     5.090000000    -0.202000000    -1.506000000
H     4.579000000    -1.005000000    -1.610000000
H     5.559000000    -0.322000000    -0.680000000
O     3.734000000    -4.168000000     2.784000000
H     3.987000000    -3.570000000     3.488000000
H     3.354000000    -4.921000000     3.235000000
O    -1.010000000     5.449000000     1.662000000
H    -0.923000000     6.230000000     1.116000000
H    -0.137000000     5.058000000     1.662000000
O     1.790000000    -4.743000000    -3.499000000
H     1.185000000    -5.274000000    -4.017000000
H     1.537000000    -3.839000000    -3.688000000
O    -3.287000000     4.921000000     0.369000000
H    -2.536000000     5.217000000     0.882000000
H    -2.908000000     4.362000000    -0.310000000
O    -0.510000000     3.036000000    -6.758000000
H    -0.995000000     3.522000000    -7.425000000
H     0.337000000     2.853000000    -7.163000000
O    -0.401000000     0.145000000     5.624000000
H    -0.221000000     0.970000000     5.173000000
H    -0.986000000     0.387000000     6.342000000
O    -3.898000000     5.263000000    -3.254000000
H    -4.593000000     4.836000000    -2.753000000
H    -3.397000000     4.541000000    -3.632000000
O    -0.718000000    -5.619000000    -3.905000000
H    -0.999000000    -6.128000000    -3.144000000
H    -0.861000000    -4.708000000    -3.650000000
O    -5.231000000     2.769000000     1.941000000
H    -4.975000000     1.980000000     1.464000000
H    -6.133000000     2.933000000     1.667000000
O     1.798000000    -1.828000000     6.950000000
H     1.107000000    -1.540000000     7.546000000
H     2.033000000    -1.041000000     6.457000000
O    -1.625000000     3.907000000     3.861000000
H    -1.553000000     4.366000000     3.024000000
H    -0.896000000     3.287000000     3.858000000
O    -3.281000000    -3.650000000     2.185000000
H    -3.707000000    -4.305000000     2.737000000
H    -3.737000000    -2.833000000     2.387000000
O     0.176000000     3.745000000    -4.068000000
H     0.064000000     3.372000000    -4.942000000
H     0.311000000     4.680000000    -4.222000000
O    -4.889000000     0.273000000     0.334000000
H    -4.629000000     0.336000000    -0.585000000
H    -5.740000000    -0.166000000     0.313000000
O     4.231000000     1.115000000     3.333000000
H     4.665000000     1.850000000     3.767000000
H     4.788000000     0.919000000     2.580000000
O    -1.185000000     0.141000000    -7.143000000
H    -0.726000000     0.517000000    -6.392000000
H    -2.113000000     0.233000000    -6.928000000
O    -1.185000000    -3.304000000    -2.575000000
H    -0.493000000    -2.684000000    -2.808000000
H    -1.290000000    -3.202000000    -1.629000000
O     3.026000000    -3.892000000     0.052000000
H     3.645000000    -4.435000000    -0.436000000
H     3.347000000    -3.914000000     0.954000000
O    -1.247000000    -2.274000000     4.342000000
H    -0.840000000    -1.464000000     4.648000000
H    -1.870000000    -1.990000000     3.672000000
O    -4.014000000    -1.177000000     2.579000000
H    -4.743000000    -1.020000000     3.178000000
H    -4.371000000    -0.986000000     1.711000000
O     4.014000000    -2.733000000     5.017000000
H     4.548000000    -3.110000000     5.716000000
H     3.388000000    -2.170000000     5.472000000
O     3.140000000     2.892000000    -4.141000000
H     3.981000000     2.673000000    -3.740000000
H     2.655000000     3.342000000    -3.449000000
O    -5.524000000    -1.659000000    -6.043000000
H    -5.255000000    -0.918000000    -5.500000000
H    -4.708000000    -2.113000000    -6.252000000
O     3.351000000    -0.910000000    -4.665000000
H     3.278000000    -1.527000000    -3.936000000
H     2.541000000    -0.402000000    -4.632000000
O    -5.421000000     3.900000000    -1.154000000
H    -6.272000000     4.227000000    -0.862000000
H    -4.849000000     4.007000000    -0.395000000
O    -4.262000000     3.289000000     4.345000000
H    -4.628000000     3.283000000     3.461000000
H    -3.359000000     3.587000000     4.228000000
O    -3.087000000     0.101000000    -5.390000000
H    -2.274000000     0.276000000    -4.917000000
H    -3.611000000     0.893000000    -5.267000000
O    -7.752000000     3.213000000    -3.626000000
H    -6.837000000     2.940000000    -3.562000000
H    -8.202000000     2.699000000    -2.955000000
O     0.815000000    -2.313000000    -4.339000000
H     0.633000000    -2.703000000    -5.194000000
H     0.709000000    -1.372000000    -4.477000000
O    -1.516000000    -2.736000000     0.076000000
H    -1.478000000    -1.779000000     0.068000000
H    -2.052000000    -2.948000000     0.840000000
O     1.280000000     0.999000000    -4.874000000
H     1.764000000     1.756000000    -4.544000000
H     0.414000000     1.076000000    -4.474000000
O    -5.308000000     1.420000000    -2.524000000
H    -5.321000000     2.142000000    -1.897000000
H    -4.381000000     1.202000000    -2.619000000
O    -3.510000000    -3.052000000    -4.002000000
H    -3.291000000    -2.946000000    -4.928000000
H    -2.662000000    -3.093000000    -3.559000000
O    -5.860000000    -2.277000000    -2.600000000
H    -5.194000000    -2.389000000    -3.278000000
H    -6.612000000    -1.907000000    -3.063000000
O     2.009000000     4.394000000    -1.552000000
H     1.197000000     4.148000000    -1.994000000
H     2.285000000     3.599000000    -1.096000000
O    -7.397000000    -0.287000000    -3.963000000
H    -7.736000000     0.265000000    -4.667000000
H    -6.766000000     0.268000000    -3.506000000
O     2.647000000     1.881000000    -0.952000000
H     1.953000000     1.259000000    -0.735000000
H     3.413000000     1.333000000    -1.125000000
O     5.847000000    -0.098000000     0.999000000
H     5.988000000    -0.764000000     1.672000000
H     6.295000000     0.679000000     1.334000000
O     6.142000000    -1.136000000     4.017000000
H     5.511000000    -1.855000000     4.055000000
H     5.874000000    -0.544000000     4.720000000
O    -1.830000000     3.731000000    -1.664000000
H    -1.190000000     3.453000000    -2.319000000
H    -2.637000000     3.280000000    -1.911000000
O     0.300000000    -3.860000000     6.253000000
H     1.064000000    -3.314000000     6.065000000
H    -0.170000000    -3.908000000     5.421000000
