144
-2819.09479
O     5.183000000    -4.210000000    -2.257000000
H     4.263000000    -4.241000000    -1.996000000
H     5.586000000    -3.598000000    -1.641000000
O    -5.038000000     0.297000000     0.192000000
H    -5.849000000     0.720000000    -0.090000000
H    -4.343000000     0.836000000    -0.185000000
O     2.903000000     1.730000000     2.926000000
H     3.561000000     2.008000000     3.563000000
H     2.105000000     2.189000000     3.190000000
O    -0.319000000    -4.627000000    -1.762000000
H    -0.211000000    -4.861000000    -0.840000000
H    -0.975000000    -5.242000000    -2.089000000
O    -7.617000000     2.486000000     1.558000000
H    -8.073000000     2.675000000     2.378000000
H    -6.789000000     2.961000000     1.629000000
O     1.414000000    -4.743000000     3.098000000
H     0.665000000    -4.444000000     3.614000000
H     1.995000000    -5.156000000     3.736000000
O     4.325000000     3.038000000    -0.055000000
H     4.855000000     3.169000000     0.731000000
H     4.659000000     3.682000000    -0.680000000
O    -3.788000000    -0.020000000    -3.222000000
H    -3.543000000    -0.814000000    -2.747000000
H    -4.175000000    -0.338000000    -4.037000000
O     2.641000000    -5.419000000    -1.428000000
H     2.074000000    -5.272000000    -0.671000000
H     2.335000000    -6.246000000    -1.799000000
O     4.130000000    -0.094000000    -5.329000000
H     3.563000000    -0.031000000    -4.560000000
H     4.885000000    -0.600000000    -5.029000000
O     5.690000000    -1.771000000    -3.751000000
H     5.981000000    -1.858000000    -2.843000000
H     5.543000000    -2.671000000    -4.043000000
O    -6.668000000     4.614000000    -1.665000000
H    -6.690000000     5.335000000    -2.294000000
H    -5.940000000     4.065000000    -1.956000000
O     6.035000000     1.087000000     1.797000000
H     5.899000000     0.158000000     1.611000000
H     5.153000000     1.446000000     1.883000000
O     3.545000000    -3.323000000    -5.299000000
H     3.618000000    -2.389000000    -5.105000000
H     2.826000000    -3.627000000    -4.745000000
O     0.213000000     5.156000000     2.061000000
H    -0.249000000     4.428000000     1.645000000
H     0.482000000     4.813000000     2.913000000
O    -1.755000000     3.044000000    -3.059000000
H    -2.212000000     2.942000000    -2.224000000
H    -2.453000000     3.065000000    -3.713000000
O    -0.674000000     7.559000000     2.895000000
H    -0.246000000     6.785000000     2.530000000
H    -1.580000000     7.285000000     3.041000000
O     5.599000000    -1.747000000     2.192000000
H     5.302000000    -2.610000000     1.905000000
H     6.023000000    -1.908000000     3.035000000
O     2.007000000    -6.565000000    -3.900000000
H     1.110000000    -6.828000000    -4.105000000
H     1.960000000    -5.615000000    -3.793000000
O     4.219000000    -2.707000000     5.071000000
H     3.920000000    -2.023000000     4.471000000
H     5.168000000    -2.734000000     4.950000000
O     1.329000000    -3.682000000    -3.729000000
H     0.750000000    -2.920000000    -3.749000000
H     1.161000000    -4.089000000    -2.879000000
O    -2.974000000    -4.315000000     0.212000000
H    -2.293000000    -4.988000000     0.200000000
H    -3.254000000    -4.275000000     1.126000000
O     5.023000000    -4.100000000     0.743000000
H     4.968000000    -4.650000000     1.524000000
H     4.123000000    -4.054000000     0.419000000
O    -6.222000000     5.499000000     0.883000000
H    -6.494000000     5.350000000    -0.023000000
H    -5.651000000     4.759000000     1.087000000
O    -4.558000000     2.581000000    -2.127000000
H    -3.948000000     2.570000000    -1.388000000
H    -4.582000000     1.674000000    -2.430000000
O    -4.129000000    -0.853000000     2.641000000
H    -4.589000000    -1.638000000     2.344000000
H    -4.573000000    -0.132000000     2.194000000
O    -1.277000000    -1.974000000     2.703000000
H    -0.700000000    -1.338000000     3.126000000
H    -1.307000000    -1.698000000     1.787000000
O     0.283000000     4.692000000    -2.842000000
H    -0.272000000     3.920000000    -2.955000000
H     1.177000000     4.351000000    -2.876000000
O     4.438000000     0.424000000    -0.837000000
H     5.177000000     0.522000000    -1.437000000
H     4.361000000     1.278000000    -0.410000000
O    -3.086000000     1.891000000    -5.242000000
H    -3.470000000     1.416000000    -5.978000000
H    -3.076000000     1.257000000    -4.525000000
O    -1.490000000     2.061000000     3.980000000
H    -1.021000000     2.867000000     3.762000000
H    -2.415000000     2.310000000     3.959000000
O     2.083000000     1.218000000    -2.464000000
H     2.926000000     0.940000000    -2.104000000
H     1.475000000     1.152000000    -1.727000000
O    -3.839000000    -3.638000000     2.705000000
H    -3.248000000    -2.902000000     2.863000000
H    -4.364000000    -3.699000000     3.503000000
O     5.937000000    -1.915000000    -1.164000000
H     5.372000000    -1.243000000    -0.784000000
H     6.644000000    -2.023000000    -0.527000000
O    -3.337000000     6.881000000     3.207000000
H    -3.083000000     6.307000000     2.484000000
H    -4.293000000     6.838000000     3.222000000
O    -2.727000000     5.625000000     0.125000000
H    -1.956000000     6.063000000    -0.237000000
H    -2.398000000     4.783000000     0.439000000
O    -3.760000000    -2.385000000    -1.677000000
H    -3.249000000    -3.121000000    -1.341000000
H    -4.336000000    -2.142000000    -0.952000000
O    -0.836000000    -1.820000000    -3.540000000
H    -0.783000000    -0.865000000    -3.582000000
H    -1.185000000    -2.002000000    -2.667000000
O     0.239000000     0.104000000     3.621000000
H    -0.341000000     0.853000000     3.759000000
H     0.710000000     0.312000000     2.814000000
O    -2.899000000    -5.752000000    -2.381000000
H    -3.664000000    -6.184000000    -2.759000000
H    -3.261000000    -5.134000000    -1.747000000
O     0.062000000     6.730000000    -1.071000000
H     0.041000000     7.452000000    -1.700000000
H    -0.040000000     5.943000000    -1.606000000
O    -0.109000000     0.873000000    -4.023000000
H     0.807000000     1.000000000    -3.776000000
H    -0.597000000     1.457000000    -3.443000000
O    -6.005000000    -2.281000000     0.405000000
H    -6.016000000    -1.397000000     0.037000000
H    -6.301000000    -2.168000000     1.309000000
O     0.547000000     3.843000000     4.445000000
H     0.642000000     3.247000000     5.188000000
H     0.725000000     4.710000000     4.810000000
O     2.440000000     5.997000000     0.594000000
H     2.661000000     5.091000000     0.380000000
H     1.487000000     6.037000000     0.507000000
O     2.865000000     3.707000000    -3.307000000
H     3.672000000     4.077000000    -2.949000000
H     2.801000000     2.839000000    -2.909000000
O    -4.885000000     3.121000000     1.620000000
H    -4.159000000     3.134000000     0.997000000
H    -4.490000000     2.827000000     2.441000000
O     0.754000000    -5.683000000     0.683000000
H     0.879000000    -6.629000000     0.764000000
H     0.790000000    -5.358000000     1.582000000
