144
-2825.62620
O    -5.167000000     1.333000000    -1.310000000
H    -4.593000000     1.869000000    -1.857000000
H    -4.626000000     1.096000000    -0.557000000
O     3.155000000     3.465000000     1.332000000
H     3.344000000     4.403000000     1.326000000
H     3.214000000     3.203000000     0.413000000
O    -0.344000000    -4.240000000    -2.271000000
H    -0.178000000    -4.768000000    -3.052000000
H    -0.048000000    -4.787000000    -1.544000000
O    -6.017000000     1.927000000     2.242000000
H    -6.104000000     2.826000000     2.561000000
H    -5.224000000     1.939000000     1.706000000
O    -0.489000000    -0.931000000     4.123000000
H    -0.815000000    -0.036000000     4.024000000
H    -1.262000000    -1.482000000     3.998000000
O     3.567000000     2.862000000    -1.376000000
H     4.413000000     2.798000000    -1.818000000
H     2.975000000     2.337000000    -1.914000000
O     1.199000000    -4.173000000     5.494000000
H     1.927000000    -3.625000000     5.201000000
H     0.582000000    -3.559000000     5.892000000
O    -4.925000000    -0.842000000    -3.593000000
H    -4.681000000    -1.212000000    -2.745000000
H    -5.387000000    -1.551000000    -4.040000000
O     3.504000000    -5.324000000    -1.260000000
H     2.689000000    -5.221000000    -0.768000000
H     3.903000000    -6.115000000    -0.897000000
O    -4.632000000     6.361000000    -3.774000000
H    -5.243000000     6.386000000    -3.037000000
H    -3.877000000     5.875000000    -3.443000000
O     2.690000000     0.385000000     3.945000000
H     1.898000000    -0.086000000     3.686000000
H     2.529000000     1.290000000     3.679000000
O    -2.853000000     4.311000000    -6.832000000
H    -2.789000000     3.476000000    -7.295000000
H    -2.573000000     4.112000000    -5.939000000
O     5.654000000    -0.979000000    -3.317000000
H     5.582000000    -1.897000000    -3.580000000
H     5.019000000    -0.883000000    -2.608000000
O     1.108000000    -0.717000000     6.758000000
H     1.542000000     0.133000000     6.673000000
H     0.510000000    -0.756000000     6.012000000
O    -6.224000000     3.819000000    -3.786000000
H    -5.601000000     4.413000000    -4.204000000
H    -5.825000000     2.953000000    -3.873000000
O     5.573000000     2.177000000     1.385000000
H     5.186000000     1.338000000     1.636000000
H     4.824000000     2.756000000     1.247000000
O     2.321000000     0.981000000    -3.139000000
H     2.774000000     1.360000000    -3.892000000
H     2.114000000     0.086000000    -3.409000000
O    -0.384000000     4.837000000     1.544000000
H    -0.833000000     4.337000000     0.863000000
H    -0.679000000     4.443000000     2.365000000
O    -2.252000000     4.099000000    -4.344000000
H    -2.563000000     3.537000000    -3.635000000
H    -1.305000000     3.958000000    -4.364000000
O     4.740000000    -0.498000000     2.132000000
H     4.142000000    -0.082000000     2.753000000
H     5.193000000    -1.167000000     2.645000000
O     1.168000000    -1.808000000    -3.543000000
H     1.278000000    -2.509000000    -4.185000000
H     1.164000000    -2.256000000    -2.697000000
O    -2.842000000    -4.687000000    -0.998000000
H    -1.942000000    -4.484000000    -1.251000000
H    -3.299000000    -3.847000000    -1.043000000
O     5.536000000    -4.056000000     0.251000000
H     5.358000000    -4.462000000     1.099000000
H     4.820000000    -4.352000000    -0.311000000
O    -4.316000000     1.821000000    -4.290000000
H    -3.609000000     1.685000000    -3.659000000
H    -4.838000000     1.020000000    -4.240000000
O    -2.914000000     0.533000000     1.649000000
H    -2.041000000     0.213000000     1.878000000
H    -2.860000000     1.481000000     1.769000000
O    -0.743000000     6.327000000    -2.231000000
H    -0.426000000     6.582000000    -3.097000000
H     0.038000000     6.021000000    -1.770000000
O     3.718000000    -0.533000000    -1.398000000
H     3.533000000    -0.545000000    -0.459000000
H     2.993000000    -0.038000000    -1.779000000
O    -2.501000000     1.575000000    -6.410000000
H    -2.788000000     0.695000000    -6.652000000
H    -2.970000000     1.765000000    -5.597000000
O    -0.938000000     1.591000000     3.618000000
H    -0.149000000     2.133000000     3.634000000
H    -1.644000000     2.188000000     3.866000000
O    -4.172000000    -1.349000000     0.395000000
H    -3.563000000    -0.638000000     0.593000000
H    -4.373000000    -1.737000000     1.247000000
O     6.325000000    -1.362000000    -0.263000000
H     5.576000000    -0.775000000    -0.368000000
H     5.956000000    -2.153000000     0.130000000
O    -3.195000000     5.864000000     1.594000000
H    -2.272000000     5.835000000     1.341000000
H    -3.669000000     5.918000000     0.764000000
O    -3.083000000     5.651000000    -1.126000000
H    -2.303000000     5.917000000    -1.611000000
H    -2.910000000     4.745000000    -0.871000000
O     4.766000000     0.630000000     5.678000000
H     4.705000000     1.510000000     6.050000000
H     3.924000000     0.495000000     5.244000000
O     3.222000000    -2.389000000     4.917000000
H     2.707000000    -1.690000000     5.321000000
H     3.767000000    -2.726000000     5.628000000
O    -5.162000000    -2.836000000    -1.710000000
H    -4.675000000    -2.424000000    -0.996000000
H    -6.072000000    -2.836000000    -1.411000000
O    -2.780000000    -1.143000000    -5.287000000
H    -2.221000000    -0.396000000    -5.072000000
H    -3.340000000    -1.251000000    -4.518000000
O    -2.544000000    -6.433000000     1.068000000
H    -2.543000000    -5.656000000     0.509000000
H    -2.717000000    -7.159000000     0.469000000
O     1.517000000     2.808000000     3.259000000
H     1.814000000     2.943000000     2.359000000
H     1.562000000     3.676000000     3.660000000
O     0.125000000     2.731000000    -5.714000000
H    -0.103000000     1.920000000    -5.259000000
H    -0.519000000     2.799000000    -6.419000000
O    -0.662000000     0.317000000    -4.117000000
H     0.000000000    -0.280000000    -3.768000000
H    -1.015000000     0.761000000    -3.345000000
O    -0.983000000    -3.657000000    -5.463000000
H    -1.402000000    -2.843000000    -5.184000000
H    -1.545000000    -4.348000000    -5.112000000
O     1.485000000    -5.269000000     2.779000000
H     2.305000000    -5.755000000     2.865000000
H     1.300000000    -4.952000000     3.663000000
O     1.587000000     6.437000000     0.644000000
H     1.627000000     6.043000000    -0.227000000
H     0.896000000     5.952000000     1.095000000
O     1.766000000     5.510000000    -1.772000000
H     2.717000000     5.576000000    -1.853000000
H     1.519000000     4.825000000    -2.393000000
O     5.107000000    -4.287000000     2.930000000
H     5.256000000    -3.441000000     3.352000000
H     4.542000000    -4.763000000     3.539000000
O    -3.833000000     3.118000000     1.167000000
H    -3.180000000     3.035000000     0.473000000
H    -3.851000000     4.054000000     1.368000000
O     0.957000000    -5.433000000    -0.016000000
H     0.590000000    -6.314000000    -0.088000000
H     0.801000000    -5.182000000     0.895000000
