144
-2825.69527
O     5.200000000    -4.352000000    -3.203000000
H     4.583000000    -5.077000000    -3.101000000
H     5.180000000    -3.901000000    -2.358000000
O    -5.096000000     0.061000000    -0.072000000
H    -5.832000000     0.479000000    -0.518000000
H    -4.433000000     0.748000000    -0.007000000
O    -1.531000000    -4.335000000    -1.761000000
H    -1.027000000    -4.264000000    -0.950000000
H    -2.403000000    -4.608000000    -1.477000000
O    -0.079000000    -4.939000000     0.729000000
H    -0.221000000    -5.849000000     0.467000000
H     0.659000000    -4.978000000     1.338000000
O     2.617000000     4.956000000    -0.406000000
H     2.481000000     4.906000000     0.540000000
H     3.362000000     4.379000000    -0.571000000
O    -4.073000000     2.080000000     4.093000000
H    -4.163000000     1.802000000     5.004000000
H    -4.941000000     2.405000000     3.854000000
O     3.092000000    -6.154000000    -2.886000000
H     2.311000000    -5.817000000    -3.325000000
H     2.946000000    -5.965000000    -1.959000000
O     5.237000000     0.387000000    -2.298000000
H     6.036000000     0.720000000    -2.706000000
H     4.919000000    -0.281000000    -2.906000000
O    -6.181000000    -0.042000000     2.630000000
H    -5.264000000    -0.277000000     2.487000000
H    -6.350000000    -0.278000000     3.542000000
O    -6.749000000    -2.755000000    -1.646000000
H    -7.427000000    -3.275000000    -1.214000000
H    -5.927000000    -3.084000000    -1.283000000
O     5.881000000    -5.648000000     1.069000000
H     5.178000000    -5.887000000     0.465000000
H     5.529000000    -4.911000000     1.567000000
O     4.357000000    -1.397000000    -4.193000000
H     4.898000000    -1.946000000    -4.761000000
H     3.568000000    -1.916000000    -4.039000000
O    -6.751000000     3.464000000    -0.322000000
H    -5.854000000     3.594000000    -0.630000000
H    -7.095000000     2.761000000    -0.874000000
O     1.717000000    -1.698000000    -4.905000000
H     1.977000000    -0.946000000    -4.374000000
H     0.821000000    -1.889000000    -4.627000000
O    -0.298000000     4.705000000     1.969000000
H    -0.544000000     4.156000000     1.225000000
H    -0.744000000     4.309000000     2.717000000
O     4.739000000    -3.835000000     2.670000000
H     5.097000000    -4.165000000     3.494000000
H     5.089000000    -2.947000000     2.596000000
O    -5.296000000     7.034000000    -1.684000000
H    -4.501000000     6.819000000    -1.195000000
H    -5.284000000     6.440000000    -2.435000000
O    -0.511000000     7.264000000     2.700000000
H    -0.602000000     6.317000000     2.593000000
H    -1.342000000     7.543000000     3.085000000
O     3.246000000    -1.096000000     4.141000000
H     3.456000000    -1.634000000     4.905000000
H     2.289000000    -1.081000000     4.115000000
O    -0.704000000    -2.253000000    -3.471000000
H    -1.192000000    -1.507000000    -3.125000000
H    -0.761000000    -2.917000000    -2.784000000
O    -3.876000000    -4.753000000    -0.583000000
H    -3.966000000    -3.834000000    -0.332000000
H    -4.389000000    -5.231000000     0.069000000
O     5.440000000    -1.264000000     2.655000000
H     4.629000000    -0.946000000     3.052000000
H     5.550000000    -0.727000000     1.870000000
O    -6.122000000     5.712000000     2.439000000
H    -6.848000000     5.941000000     1.858000000
H    -5.385000000     5.553000000     1.849000000
O    -4.585000000     3.967000000    -1.714000000
H    -4.198000000     3.505000000    -0.970000000
H    -3.840000000     4.181000000    -2.276000000
O    -3.561000000    -1.539000000     3.197000000
H    -3.271000000    -0.689000000     2.866000000
H    -2.841000000    -2.135000000     2.991000000
O    -1.538000000    -3.210000000     2.710000000
H    -1.368000000    -3.715000000     3.505000000
H    -0.997000000    -3.628000000     2.040000000
O     5.999000000     2.745000000     1.724000000
H     5.856000000     3.214000000     2.546000000
H     5.489000000     3.234000000     1.077000000
O     5.725000000     0.024000000     0.322000000
H     6.277000000     0.794000000     0.459000000
H     5.540000000     0.026000000    -0.617000000
O     4.390000000     2.879000000    -1.032000000
H     4.606000000     1.947000000    -0.998000000
H     5.116000000     3.275000000    -1.514000000
O    -1.784000000     1.146000000     3.005000000
H    -1.363000000     1.916000000     2.622000000
H    -2.507000000     1.500000000     3.522000000
O     2.323000000     0.356000000    -3.013000000
H     3.048000000     0.743000000    -2.522000000
H     1.653000000     0.182000000    -2.352000000
O     5.469000000    -3.288000000    -0.828000000
H     5.297000000    -2.393000000    -0.535000000
H     5.959000000    -3.686000000    -0.109000000
O    -3.422000000     7.030000000     2.812000000
H    -3.083000000     6.135000000     2.854000000
H    -4.264000000     6.989000000     3.266000000
O    -2.086000000     4.275000000    -2.482000000
H    -1.506000000     5.020000000    -2.644000000
H    -1.867000000     3.990000000    -1.595000000
O    -3.894000000    -1.716000000    -4.215000000
H    -3.823000000    -1.051000000    -3.530000000
H    -3.300000000    -1.416000000    -4.903000000
O    -0.005000000    -5.603000000    -3.729000000
H    -0.446000000    -5.005000000    -3.126000000
H    -0.372000000    -6.463000000    -3.525000000
O     3.369000000    -6.252000000    -0.194000000
H     2.982000000    -5.637000000     0.430000000
H     3.000000000    -7.101000000     0.048000000
O     0.048000000    -0.835000000     3.886000000
H    -0.447000000    -0.170000000     3.407000000
H     0.072000000    -1.588000000     3.296000000
O    -3.145000000     7.236000000     0.103000000
H    -3.169000000     7.388000000     1.047000000
H    -2.218000000     7.103000000    -0.095000000
O    -0.311000000     6.371000000    -0.188000000
H    -0.160000000     5.912000000     0.638000000
H     0.232000000     7.157000000    -0.129000000
O    -3.655000000     0.669000000    -2.955000000
H    -3.466000000     1.599000000    -2.833000000
H    -3.942000000     0.368000000    -2.092000000
O    -4.916000000    -2.520000000     0.553000000
H    -5.056000000    -1.582000000     0.419000000
H    -4.822000000    -2.614000000     1.501000000
O    -7.825000000     1.937000000     1.782000000
H    -7.434000000     2.506000000     1.118000000
H    -7.228000000     1.191000000     1.839000000
O    -1.275000000     3.909000000     4.216000000
H    -1.424000000     3.449000000     5.042000000
H    -1.095000000     4.813000000     4.474000000
O     2.499000000     5.002000000     2.591000000
H     2.979000000     4.367000000     3.123000000
H     1.585000000     4.725000000     2.654000000
O     0.724000000     4.990000000    -2.525000000
H     1.315000000     5.451000000    -1.930000000
H     0.376000000     4.266000000    -2.005000000
O     2.315000000    -4.977000000     2.182000000
H     3.107000000    -4.502000000     2.433000000
H     1.992000000    -5.354000000     3.000000000
O    -3.539000000     4.237000000     2.347000000
H    -3.149000000     3.873000000     1.552000000
H    -3.297000000     3.619000000     3.037000000
