144
-2789.85960
O     1.610000000     7.312000000     3.330000000
H     1.340000000     6.583000000     2.772000000
H     1.103000000     8.059000000     3.010000000
O    -4.431000000     4.704000000    -1.760000000
H    -3.783000000     4.802000000    -1.062000000
H    -4.506000000     3.758000000    -1.887000000
O    -2.855000000     4.286000000     3.627000000
H    -2.679000000     3.622000000     2.961000000
H    -3.808000000     4.294000000     3.712000000
O     1.405000000    -4.465000000     1.636000000
H     2.078000000    -4.993000000     1.206000000
H     0.582000000    -4.766000000     1.251000000
O     0.192000000     5.338000000     2.156000000
H    -0.635000000     5.274000000     2.635000000
H     0.026000000     4.880000000     1.332000000
O     5.122000000    -0.567000000    -3.821000000
H     4.799000000    -1.178000000    -4.483000000
H     5.238000000     0.258000000    -4.292000000
O     6.713000000     0.203000000     0.155000000
H     7.307000000    -0.546000000     0.115000000
H     5.949000000    -0.069000000    -0.352000000
O     1.287000000    -3.170000000     6.462000000
H     0.904000000    -3.642000000     7.202000000
H     0.555000000    -3.033000000     5.861000000
O    -3.899000000     1.415000000    -0.984000000
H    -4.320000000     1.617000000    -0.149000000
H    -4.625000000     1.323000000    -1.602000000
O     6.370000000    -3.631000000    -3.552000000
H     5.436000000    -3.820000000    -3.466000000
H     6.412000000    -2.684000000    -3.685000000
O    -0.611000000     2.395000000     4.471000000
H    -0.753000000     3.295000000     4.178000000
H    -1.115000000     1.861000000     3.857000000
O    -3.207000000     5.555000000     0.849000000
H    -2.424000000     5.018000000     0.725000000
H    -2.884000000     6.456000000     0.835000000
O    -4.206000000    -1.851000000     0.595000000
H    -4.434000000    -1.243000000     1.299000000
H    -3.596000000    -1.361000000     0.044000000
O    -1.180000000    -3.804000000    -3.670000000
H    -1.568000000    -4.490000000    -4.213000000
H    -1.417000000    -2.988000000    -4.112000000
O     1.660000000     5.814000000    -0.911000000
H     0.720000000     5.777000000    -1.087000000
H     1.957000000     4.909000000    -1.007000000
O    -3.544000000    -4.487000000     0.940000000
H    -4.051000000    -5.062000000     0.367000000
H    -4.091000000    -3.707000000     1.041000000
O     1.461000000     0.688000000     4.951000000
H     0.818000000     1.343000000     4.682000000
H     2.302000000     1.047000000     4.665000000
O     1.650000000    -3.432000000    -4.292000000
H     1.608000000    -2.476000000    -4.294000000
H     0.901000000    -3.704000000    -3.762000000
O     3.853000000     0.485000000    -1.347000000
H     3.144000000    -0.154000000    -1.414000000
H     4.507000000     0.184000000    -1.978000000
O    -2.875000000    -1.536000000     3.858000000
H    -3.285000000    -2.062000000     3.172000000
H    -3.584000000    -1.348000000     4.473000000
O     4.579000000    -1.859000000     1.343000000
H     4.836000000    -2.225000000     2.189000000
H     3.883000000    -1.236000000     1.553000000
O     2.725000000     3.295000000    -1.123000000
H     2.395000000     3.352000000    -2.020000000
H     2.710000000     2.360000000    -0.920000000
O    -5.489000000     4.276000000     4.468000000
H    -6.101000000     3.552000000     4.334000000
H    -5.266000000     4.232000000     5.397000000
O    -4.846000000     1.719000000     1.489000000
H    -5.170000000     0.987000000     2.014000000
H    -4.004000000     1.943000000     1.885000000
O    -1.015000000     5.352000000     5.685000000
H    -1.717000000     4.881000000     5.235000000
H    -1.348000000     5.489000000     6.572000000
O     1.981000000    -0.288000000    -4.799000000
H     2.465000000    -0.583000000    -5.571000000
H     1.926000000     0.662000000    -4.900000000
O     2.306000000     3.788000000     3.219000000
H     2.898000000     4.538000000     3.146000000
H     1.503000000     4.074000000     2.783000000
O     3.851000000    -4.474000000    -2.913000000
H     3.689000000    -4.209000000    -2.007000000
H     3.013000000    -4.340000000    -3.355000000
O     3.902000000    -4.251000000     0.089000000
H     3.932000000    -3.332000000     0.357000000
H     4.031000000    -4.742000000     0.900000000
O    -0.516000000    -6.300000000     4.257000000
H    -1.458000000    -6.137000000     4.217000000
H    -0.119000000    -5.432000000     4.187000000
O     1.562000000     3.747000000    -3.814000000
H     0.838000000     3.293000000    -4.245000000
H     1.983000000     4.246000000    -4.514000000
O     0.377000000    -8.080000000    -1.419000000
H     0.202000000    -8.615000000    -2.193000000
H    -0.369000000    -7.483000000    -1.366000000
O     2.048000000    -2.553000000     3.511000000
H     1.927000000    -3.149000000     2.772000000
H     2.134000000    -3.128000000     4.271000000
O    -2.043000000     2.559000000    -2.408000000
H    -2.509000000     2.009000000    -1.778000000
H    -1.812000000     1.964000000    -3.121000000
O    -1.000000000    -4.993000000     0.465000000
H    -1.906000000    -4.858000000     0.741000000
H    -1.055000000    -5.119000000    -0.482000000
O    -0.147000000     0.348000000     7.422000000
H     0.281000000     1.076000000     7.874000000
H    -0.074000000     0.568000000     6.493000000
O    -2.748000000     7.393000000    -2.407000000
H    -2.062000000     7.304000000    -1.746000000
H    -2.300000000     7.236000000    -3.239000000
O    -0.830000000     5.159000000    -1.134000000
H    -1.226000000     4.732000000    -1.893000000
H    -0.798000000     4.475000000    -0.465000000
O    -0.941000000     0.547000000    -4.324000000
H    -0.039000000     0.231000000    -4.265000000
H    -0.859000000     1.451000000    -4.625000000
O     6.689000000    -4.342000000    -0.985000000
H     6.642000000    -4.255000000    -1.937000000
H     5.786000000    -4.512000000    -0.714000000
O    -2.127000000    -1.898000000    -5.360000000
H    -3.011000000    -1.836000000    -5.723000000
H    -1.941000000    -1.017000000    -5.033000000
O    -5.845000000    -0.529000000     2.470000000
H    -6.237000000    -1.234000000     2.985000000
H    -6.566000000    -0.189000000     1.941000000
O     2.725000000    -0.222000000     2.245000000
H     2.105000000    -0.011000000     1.547000000
H     2.229000000    -0.776000000     2.847000000
O    -1.307000000    -6.025000000    -2.343000000
H    -1.598000000    -6.453000000    -3.148000000
H    -1.152000000    -5.116000000    -2.597000000
O    -0.642000000     2.788000000    -5.716000000
H     0.191000000     2.822000000    -6.187000000
H    -1.242000000     3.304000000    -6.254000000
O     5.109000000     4.572000000    -0.796000000
H     4.243000000     4.165000000    -0.822000000
H     4.945000000     5.467000000    -0.501000000
O    -0.662000000    -3.362000000     4.506000000
H    -1.374000000    -2.725000000     4.447000000
H    -0.068000000    -3.124000000     3.795000000
O    -6.006000000     4.341000000     0.679000000
H    -5.074000000     4.487000000     0.522000000
H    -6.107000000     3.389000000     0.657000000
