144
-2801.74341
O    -4.877000000     1.689000000    -0.740000000
H    -5.273000000     2.532000000    -0.521000000
H    -4.661000000     1.299000000     0.107000000
O    -2.660000000     4.071000000     6.391000000
H    -3.129000000     3.336000000     6.787000000
H    -1.751000000     3.951000000     6.665000000
O     0.293000000    -3.514000000    -6.835000000
H    -0.210000000    -3.220000000    -6.076000000
H     0.007000000    -4.416000000    -6.977000000
O    -0.917000000     5.255000000     1.877000000
H    -1.082000000     5.461000000     2.797000000
H    -0.713000000     4.320000000     1.873000000
O     7.051000000     0.085000000    -3.266000000
H     6.990000000    -0.868000000    -3.331000000
H     6.931000000     0.395000000    -4.163000000
O     4.162000000    -5.394000000     1.683000000
H     3.207000000    -5.327000000     1.651000000
H     4.352000000    -5.682000000     2.576000000
O    -5.253000000    -1.496000000    -0.388000000
H    -5.912000000    -1.409000000     0.301000000
H    -5.651000000    -1.079000000    -1.153000000
O     5.681000000    -2.752000000    -5.328000000
H     4.770000000    -2.749000000    -5.036000000
H     5.643000000    -2.455000000    -6.237000000
O     0.275000000     2.870000000     3.795000000
H     0.142000000     3.053000000     4.725000000
H    -0.599000000     2.664000000     3.464000000
O     3.141000000    -3.285000000    -5.865000000
H     2.434000000    -3.815000000    -6.233000000
H     2.826000000    -2.384000000    -5.933000000
O    -4.339000000     3.532000000     1.580000000
H    -3.470000000     3.165000000     1.748000000
H    -4.274000000     4.442000000     1.870000000
O    -2.761000000    -2.776000000    -0.031000000
H    -2.069000000    -2.122000000     0.065000000
H    -3.572000000    -2.268000000    -0.034000000
O     0.520000000    -4.739000000    -3.516000000
H     0.028000000    -5.486000000    -3.855000000
H     0.121000000    -3.978000000    -3.938000000
O    -5.115000000     4.324000000     4.698000000
H    -5.992000000     4.036000000     4.445000000
H    -4.616000000     3.513000000     4.795000000
O    -3.326000000    -4.136000000     5.058000000
H    -3.110000000    -4.132000000     5.990000000
H    -3.325000000    -3.212000000     4.808000000
O     1.440000000     6.114000000    -1.758000000
H     0.945000000     6.413000000    -2.521000000
H     2.182000000     5.635000000    -2.128000000
O    -2.191000000    -5.301000000     0.496000000
H    -2.111000000    -5.190000000     1.443000000
H    -2.443000000    -4.435000000     0.174000000
O     1.373000000    -0.075000000     3.483000000
H     1.479000000     0.812000000     3.137000000
H     2.268000000    -0.398000000     3.590000000
O     3.031000000    -5.187000000    -2.234000000
H     3.297000000    -4.352000000    -1.849000000
H     2.176000000    -5.009000000    -2.625000000
O     4.900000000     1.693000000    -3.078000000
H     5.188000000     2.600000000    -3.182000000
H     5.708000000     1.201000000    -2.933000000
O    -3.134000000     3.052000000    -2.172000000
H    -3.563000000     2.344000000    -1.691000000
H    -2.416000000     2.623000000    -2.638000000
O    -2.829000000    -1.525000000     4.467000000
H    -3.057000000    -1.039000000     3.675000000
H    -1.996000000    -1.145000000     4.749000000
O    -1.706000000    -4.823000000     3.129000000
H    -2.448000000    -4.602000000     3.692000000
H    -0.963000000    -4.366000000     3.522000000
O     4.679000000     2.560000000     2.235000000
H     3.769000000     2.854000000     2.251000000
H     4.693000000     1.858000000     1.584000000
O     4.767000000    -1.705000000     1.443000000
H     4.417000000    -1.767000000     2.332000000
H     4.352000000    -0.925000000     1.076000000
O     2.944000000     2.934000000    -1.286000000
H     2.181000000     2.857000000    -1.859000000
H     3.674000000     2.611000000    -1.814000000
O     1.412000000     6.397000000     1.405000000
H     1.854000000     6.086000000     0.615000000
H     0.535000000     6.017000000     1.355000000
O    -4.252000000     1.687000000     4.487000000
H    -4.217000000     1.194000000     5.306000000
H    -3.711000000     1.182000000     3.879000000
O    -2.035000000     6.032000000     4.490000000
H    -2.691000000     5.554000000     4.997000000
H    -1.276000000     6.085000000     5.070000000
O     3.713000000     0.116000000    -5.378000000
H     3.400000000     0.588000000    -6.150000000
H     4.271000000     0.746000000    -4.922000000
O     2.051000000     2.861000000     1.860000000
H     1.966000000     3.688000000     1.386000000
H     1.397000000     2.916000000     2.557000000
O     5.435000000    -3.871000000    -0.117000000
H     5.270000000    -2.983000000     0.201000000
H     4.950000000    -4.435000000     0.485000000
O     0.959000000     3.432000000    -3.330000000
H     0.122000000     2.997000000    -3.493000000
H     0.887000000     4.268000000    -3.789000000
O    -5.666000000    -0.126000000     6.283000000
H    -6.263000000     0.181000000     5.601000000
H    -5.368000000    -0.981000000     5.973000000
O    -1.359000000     1.425000000    -3.514000000
H    -0.679000000     0.994000000    -4.033000000
H    -1.136000000     1.216000000    -2.607000000
O     1.068000000    -6.613000000     1.483000000
H     0.238000000    -6.214000000     1.222000000
H     1.477000000    -6.875000000     0.658000000
O     0.969000000    -1.520000000     5.795000000
H     0.545000000    -1.104000000     6.545000000
H     1.090000000    -0.811000000     5.164000000
O    -4.274000000     5.553000000    -1.802000000
H    -3.505000000     6.085000000    -2.005000000
H    -3.927000000     4.672000000    -1.663000000
O    -1.646000000     6.305000000    -3.157000000
H    -1.493000000     6.468000000    -2.226000000
H    -1.100000000     6.950000000    -3.606000000
O    -0.923000000     6.672000000    -0.512000000
H    -1.172000000     6.044000000     0.165000000
H    -0.025000000     6.433000000    -0.742000000
O     0.705000000     0.207000000    -4.927000000
H     1.566000000     0.535000000    -4.669000000
H     0.435000000     0.781000000    -5.644000000
O    -0.577000000    -2.359000000    -4.564000000
H    -1.517000000    -2.207000000    -4.460000000
H    -0.165000000    -1.584000000    -4.183000000
O    -7.215000000    -1.066000000     1.725000000
H    -7.141000000    -0.425000000     2.431000000
H    -8.138000000    -1.037000000     1.471000000
O     3.191000000     0.557000000     0.687000000
H     3.370000000     0.762000000    -0.231000000
H     2.618000000     1.264000000     0.983000000
O    -4.167000000     6.035000000     2.836000000
H    -4.578000000     5.599000000     3.582000000
H    -3.228000000     5.963000000     3.003000000
O     3.825000000     4.867000000     0.606000000
H     3.438000000     4.467000000    -0.173000000
H     4.640000000     4.383000000     0.744000000
O     0.229000000    -3.272000000     3.721000000
H     0.155000000    -2.809000000     2.887000000
H     0.857000000    -2.756000000     4.227000000
O    -6.365000000     2.067000000     2.794000000
H    -5.982000000     2.862000000     2.423000000
H    -5.632000000     1.623000000     3.219000000
