144
-2792.27283
O    -0.346000000     3.490000000     5.274000000
H    -0.754000000     3.242000000     4.444000000
H    -0.569000000     4.414000000     5.383000000
O    -2.645000000    -0.109000000    -1.433000000
H    -2.717000000    -0.910000000    -0.913000000
H    -1.756000000     0.204000000    -1.270000000
O     0.775000000     5.903000000    -0.018000000
H     1.456000000     5.231000000    -0.006000000
H     0.486000000     5.935000000    -0.930000000
O     4.971000000    -3.357000000    -1.289000000
H     4.796000000    -2.746000000    -0.573000000
H     4.144000000    -3.822000000    -1.415000000
O    -0.460000000    -2.720000000    -5.349000000
H    -1.360000000    -2.432000000    -5.501000000
H    -0.106000000    -2.870000000    -6.226000000
O    -0.948000000     5.102000000     2.034000000
H    -0.480000000     5.285000000     1.220000000
H    -1.444000000     4.304000000     1.851000000
O    -2.656000000    -3.590000000    -2.737000000
H    -2.699000000    -4.022000000    -1.885000000
H    -2.605000000    -2.657000000    -2.531000000
O     6.998000000    -2.643000000    -3.096000000
H     6.305000000    -3.160000000    -2.685000000
H     6.566000000    -2.200000000    -3.826000000
O    -4.444000000     2.618000000    -1.620000000
H    -4.729000000     1.733000000    -1.395000000
H    -4.129000000     2.986000000    -0.794000000
O    -5.500000000     0.443000000     3.522000000
H    -6.236000000     0.991000000     3.794000000
H    -5.854000000    -0.102000000     2.819000000
O    -5.445000000     0.557000000    -0.201000000
H    -4.695000000     0.308000000     0.339000000
H    -6.045000000     0.989000000     0.407000000
O    -3.887000000     2.785000000     4.100000000
H    -4.258000000     1.936000000     3.859000000
H    -3.077000000     2.845000000     3.594000000
O    -3.987000000     3.837000000     0.859000000
H    -3.350000000     3.525000000     1.502000000
H    -3.720000000     4.738000000     0.675000000
O    -0.102000000    -4.936000000    -3.628000000
H    -0.600000000    -4.297000000    -3.118000000
H    -0.330000000    -4.746000000    -4.538000000
O     1.458000000     4.122000000    -4.516000000
H     1.064000000     4.680000000    -5.186000000
H     0.766000000     4.001000000    -3.867000000
O     3.809000000     0.905000000    -3.509000000
H     3.732000000     1.479000000    -4.271000000
H     3.407000000     0.082000000    -3.787000000
O     2.731000000     4.142000000     0.191000000
H     3.243000000     3.484000000    -0.280000000
H     2.953000000     4.004000000     1.112000000
O     1.918000000    -6.694000000    -3.357000000
H     1.791000000    -6.974000000    -4.263000000
H     1.294000000    -5.978000000    -3.237000000
O     1.468000000     2.685000000     2.615000000
H     1.162000000     3.195000000     3.365000000
H     1.020000000     3.072000000     1.863000000
O    -6.678000000     4.265000000     0.472000000
H    -5.757000000     4.004000000     0.495000000
H    -7.150000000     3.506000000     0.816000000
O     3.651000000    -3.460000000    -6.426000000
H     3.113000000    -2.734000000    -6.111000000
H     3.502000000    -3.475000000    -7.372000000
O     2.722000000     0.474000000     1.378000000
H     1.838000000     0.117000000     1.291000000
H     2.610000000     1.264000000     1.907000000
O     0.643000000    -4.083000000     2.855000000
H    -0.046000000    -3.419000000     2.877000000
H     0.620000000    -4.423000000     1.960000000
O     3.587000000     2.028000000    -1.192000000
H     3.609000000     1.612000000    -2.053000000
H     2.916000000     1.544000000    -0.710000000
O     5.386000000    -1.495000000    -4.961000000
H     4.491000000    -1.485000000    -5.300000000
H     5.735000000    -0.630000000    -5.179000000
O    -2.765000000     7.038000000     3.930000000
H    -1.825000000     7.216000000     3.943000000
H    -2.973000000     6.913000000     3.004000000
O    -3.115000000    -0.323000000     4.911000000
H    -3.966000000     0.002000000     4.617000000
H    -2.479000000     0.163000000     4.387000000
O    -2.937000000    -2.319000000     0.015000000
H    -3.429000000    -2.549000000     0.803000000
H    -2.021000000    -2.340000000     0.291000000
O     0.043000000    -4.998000000     0.113000000
H    -0.888000000    -5.123000000    -0.070000000
H     0.479000000    -5.701000000    -0.368000000
O     2.172000000    -1.264000000    -5.847000000
H     1.463000000    -1.514000000    -5.255000000
H     1.755000000    -0.697000000    -6.496000000
O    -3.365000000     3.503000000     6.650000000
H    -2.904000000     2.795000000     7.101000000
H    -3.439000000     3.203000000     5.744000000
O     4.646000000    -1.287000000     0.744000000
H     5.251000000    -0.720000000     0.265000000
H     3.978000000    -0.691000000     1.084000000
O    -3.974000000    -2.128000000     2.707000000
H    -4.610000000    -1.530000000     3.099000000
H    -3.195000000    -2.043000000     3.257000000
O    -3.681000000    -0.220000000    -4.272000000
H    -3.382000000     0.573000000    -4.716000000
H    -3.385000000    -0.114000000    -3.367000000
O     3.038000000    -6.689000000    -1.058000000
H     2.626000000    -6.774000000    -1.918000000
H     3.907000000    -6.331000000    -1.244000000
O     0.441000000     0.586000000     4.952000000
H    -0.287000000     0.796000000     4.367000000
H     0.566000000     1.378000000     5.474000000
O    -1.841000000     5.938000000    -2.301000000
H    -1.523000000     5.035000000    -2.328000000
H    -2.787000000     5.855000000    -2.186000000
O    -0.231000000     2.969000000     8.003000000
H     0.722000000     3.065000000     7.989000000
H    -0.502000000     3.147000000     7.102000000
O    -1.187000000     3.126000000    -2.741000000
H    -1.647000000     3.097000000    -3.581000000
H    -1.502000000     2.355000000    -2.270000000
O     3.387000000     2.297000000    -5.887000000
H     2.630000000     2.809000000    -5.603000000
H     3.559000000     2.598000000    -6.779000000
O     4.606000000    -3.466000000     3.208000000
H     4.502000000    -2.885000000     2.455000000
H     4.878000000    -2.888000000     3.921000000
O    -1.322000000    -2.546000000     4.203000000
H    -1.171000000    -3.162000000     4.919000000
H    -1.512000000    -1.714000000     4.638000000
O     2.006000000    -1.524000000     3.659000000
H     1.677000000    -2.286000000     4.136000000
H     1.586000000    -0.776000000     4.085000000
O     2.776000000    -5.117000000     4.366000000
H     3.495000000    -4.542000000     4.107000000
H     2.002000000    -4.733000000     3.955000000
O    -1.565000000     3.521000000    -5.710000000
H    -2.107000000     3.251000000    -6.451000000
H    -0.666000000     3.370000000    -6.002000000
O    -2.886000000     1.115000000     7.681000000
H    -2.568000000     0.970000000     8.572000000
H    -2.553000000     0.369000000     7.183000000
O    -3.586000000     6.559000000     0.763000000
H    -4.186000000     7.006000000     0.166000000
H    -2.807000000     7.115000000     0.778000000
O     6.399000000     1.511000000    -2.920000000
H     5.592000000     1.026000000    -3.096000000
H     6.214000000     2.401000000    -3.221000000
