144
-2804.34780
O    -2.616000000    -0.020000000     7.248000000
H    -3.084000000     0.599000000     6.689000000
H    -2.389000000    -0.745000000     6.666000000
O    -4.416000000    -3.926000000    -0.525000000
H    -4.663000000    -3.164000000    -0.001000000
H    -5.117000000    -4.559000000    -0.374000000
O    -1.020000000     5.490000000     2.743000000
H    -0.189000000     5.528000000     2.270000000
H    -0.770000000     5.366000000     3.658000000
O    -0.304000000    -4.752000000    -1.961000000
H     0.620000000    -4.780000000    -2.211000000
H    -0.393000000    -5.436000000    -1.297000000
O     1.211000000    -2.040000000     6.555000000
H     0.532000000    -2.298000000     7.179000000
H     0.785000000    -1.396000000     5.990000000
O    -2.026000000    -4.614000000     0.612000000
H    -2.818000000    -4.269000000     0.200000000
H    -1.950000000    -5.507000000     0.275000000
O    -3.418000000     3.930000000     2.260000000
H    -2.630000000     4.474000000     2.256000000
H    -3.091000000     3.037000000     2.365000000
O    -7.304000000     1.096000000     4.640000000
H    -6.462000000     0.729000000     4.909000000
H    -7.373000000     1.919000000     5.124000000
O     5.359000000    -0.095000000    -2.789000000
H     5.072000000     0.413000000    -2.030000000
H     5.382000000    -0.999000000    -2.476000000
O    -2.569000000     2.170000000    -3.209000000
H    -2.386000000     1.432000000    -3.791000000
H    -3.274000000     1.858000000    -2.641000000
O    -6.968000000    -0.824000000     0.655000000
H    -6.551000000    -0.066000000     1.065000000
H    -6.541000000    -1.579000000     1.060000000
O    -4.295000000    -2.983000000     5.979000000
H    -4.925000000    -3.543000000     5.525000000
H    -4.434000000    -2.113000000     5.604000000
O    -5.615000000     1.325000000     1.783000000
H    -5.935000000     1.804000000     2.548000000
H    -4.667000000     1.281000000     1.907000000
O     4.151000000     3.519000000    -6.219000000
H     3.798000000     3.203000000    -5.387000000
H     4.373000000     2.723000000    -6.703000000
O     1.531000000     5.540000000     1.887000000
H     2.135000000     5.232000000     1.212000000
H     1.946000000     6.327000000     2.239000000
O     0.695000000     2.854000000     3.360000000
H     0.743000000     3.587000000     2.745000000
H     1.032000000     2.106000000     2.867000000
O     1.336000000     1.935000000    -4.471000000
H     0.769000000     2.639000000    -4.156000000
H     0.821000000     1.138000000    -4.345000000
O     2.880000000     4.330000000    -0.598000000
H     3.421000000     3.905000000    -1.264000000
H     3.060000000     3.840000000     0.204000000
O    -6.132000000    -3.061000000     2.016000000
H    -5.395000000    -3.318000000     2.570000000
H    -6.792000000    -3.738000000     2.165000000
O     7.796000000    -1.207000000    -0.781000000
H     7.311000000    -2.025000000    -0.890000000
H     7.913000000    -0.878000000    -1.672000000
O     3.583000000     2.976000000     1.481000000
H     4.468000000     3.226000000     1.748000000
H     3.479000000     2.081000000     1.805000000
O     0.621000000     0.868000000     5.456000000
H     0.617000000     0.717000000     4.511000000
H     0.948000000     1.762000000     5.555000000
O    -2.817000000     5.410000000    -0.855000000
H    -3.625000000     5.120000000    -0.432000000
H    -2.223000000     4.664000000    -0.774000000
O     0.106000000     5.362000000    -0.884000000
H     0.943000000     4.986000000    -0.610000000
H    -0.143000000     4.854000000    -1.656000000
O     1.332000000     0.048000000     2.837000000
H     0.846000000    -0.383000000     2.135000000
H     2.244000000    -0.199000000     2.684000000
O     5.887000000    -2.800000000    -2.212000000
H     5.812000000    -3.713000000    -1.933000000
H     5.873000000    -2.840000000    -3.168000000
O    -3.534000000     1.430000000     4.872000000
H    -4.356000000     0.979000000     5.064000000
H    -3.268000000     1.092000000     4.017000000
O     7.739000000     1.301000000    -2.761000000
H     8.270000000     1.304000000    -3.557000000
H     6.960000000     0.795000000    -2.994000000
O    -3.205000000    -3.425000000     3.032000000
H    -2.648000000    -3.668000000     2.293000000
H    -3.003000000    -2.503000000     3.192000000
O    -2.699000000     3.942000000     6.555000000
H    -2.701000000     3.195000000     5.957000000
H    -3.157000000     3.627000000     7.334000000
O     2.591000000    -5.029000000    -1.743000000
H     2.780000000    -4.573000000    -0.923000000
H     3.404000000    -5.487000000    -1.956000000
O     4.872000000    -2.342000000     1.121000000
H     4.652000000    -1.570000000     1.643000000
H     4.121000000    -2.926000000     1.229000000
O    -1.146000000    -5.714000000     3.592000000
H    -0.833000000    -6.611000000     3.476000000
H    -0.591000000    -5.191000000     3.013000000
O    -1.363000000    -2.873000000    -3.435000000
H    -1.014000000    -3.629000000    -2.963000000
H    -2.289000000    -3.080000000    -3.566000000
O     3.122000000    -2.314000000     3.494000000
H     3.717000000    -3.045000000     3.325000000
H     2.492000000    -2.660000000     4.126000000
O     1.670000000    -1.570000000    -5.493000000
H     0.879000000    -1.907000000    -5.072000000
H     1.383000000    -0.772000000    -5.938000000
O    -1.335000000    -1.239000000     5.114000000
H    -0.662000000    -0.559000000     5.085000000
H    -1.841000000    -1.110000000     4.312000000
O     3.796000000     2.532000000    -3.754000000
H     2.940000000     2.168000000    -3.977000000
H     4.406000000     1.805000000    -3.881000000
O     0.264000000    -4.208000000     2.022000000
H     0.452000000    -3.278000000     2.152000000
H    -0.259000000    -4.237000000     1.221000000
O    -3.641000000    -0.907000000    -1.735000000
H    -3.967000000    -0.014000000    -1.627000000
H    -2.713000000    -0.853000000    -1.505000000
O    -0.494000000     3.793000000    -3.383000000
H    -0.743000000     4.433000000    -4.050000000
H    -1.314000000     3.356000000    -3.152000000
O    -0.753000000    -0.079000000    -4.546000000
H    -1.570000000    -0.116000000    -5.043000000
H    -0.777000000    -0.855000000    -3.986000000
O     3.296000000    -4.693000000     1.900000000
H     3.780000000    -5.467000000     2.189000000
H     2.380000000    -4.901000000     2.083000000
O    -1.758000000    -4.286000000     5.736000000
H    -1.583000000    -4.714000000     4.898000000
H    -2.615000000    -3.875000000     5.620000000
O    -4.700000000     1.738000000    -1.251000000
H    -5.147000000     2.465000000    -1.685000000
H    -5.090000000     1.704000000    -0.378000000
O    -5.051000000    -0.781000000     4.171000000
H    -5.787000000    -0.791000000     3.559000000
H    -4.280000000    -0.659000000     3.618000000
O     4.475000000    -1.381000000    -6.098000000
H     5.109000000    -1.830000000    -5.539000000
H     3.686000000    -1.315000000    -5.559000000
O    -5.421000000     5.108000000     0.574000000
H    -5.103000000     4.556000000     1.288000000
H    -5.388000000     5.998000000     0.926000000
