144
-2795.04260
O    -5.039000000     4.738000000    -1.398000000
H    -4.151000000     4.799000000    -1.046000000
H    -5.032000000     3.942000000    -1.931000000
O     3.780000000    -2.884000000    -4.547000000
H     2.950000000    -3.249000000    -4.239000000
H     3.764000000    -1.973000000    -4.252000000
O     6.644000000    -0.406000000     1.318000000
H     6.880000000    -0.292000000     2.238000000
H     6.113000000    -1.202000000     1.304000000
O    -3.229000000     2.319000000     6.316000000
H    -3.737000000     2.672000000     5.586000000
H    -2.984000000     1.438000000     6.034000000
O    -0.299000000    -5.185000000    -0.120000000
H    -0.546000000    -5.942000000    -0.651000000
H    -0.659000000    -5.373000000     0.747000000
O    -7.250000000     1.842000000    -2.472000000
H    -7.164000000     2.135000000    -1.565000000
H    -8.183000000     1.658000000    -2.577000000
O    -6.582000000     2.274000000     0.189000000
H    -6.783000000     1.342000000     0.270000000
H    -5.638000000     2.303000000     0.034000000
O     5.718000000    -0.187000000    -2.416000000
H     5.375000000     0.686000000    -2.224000000
H     5.583000000    -0.296000000    -3.358000000
O     3.781000000     2.056000000    -2.422000000
H     3.576000000     1.810000000    -1.519000000
H     3.945000000     2.998000000    -2.381000000
O     4.305000000    -1.812000000     2.249000000
H     4.212000000    -2.730000000     2.502000000
H     3.986000000    -1.322000000     3.007000000
O    -1.792000000     2.579000000    -3.902000000
H    -1.787000000     2.562000000    -4.859000000
H    -2.358000000     3.318000000    -3.679000000
O     8.097000000     0.739000000    -1.031000000
H     7.986000000     0.501000000    -0.110000000
H     7.321000000     0.385000000    -1.465000000
O    -3.366000000    -0.905000000    -1.772000000
H    -4.103000000    -1.451000000    -1.495000000
H    -2.600000000    -1.321000000    -1.377000000
O    -6.304000000    -2.065000000     3.440000000
H    -5.469000000    -1.960000000     2.983000000
H    -6.148000000    -1.699000000     4.310000000
O    -4.354000000     1.633000000    -1.390000000
H    -3.847000000     1.910000000    -0.628000000
H    -4.041000000     0.748000000    -1.577000000
O    -2.300000000     7.268000000     0.239000000
H    -2.470000000     6.327000000     0.291000000
H    -1.356000000     7.333000000     0.098000000
O    -1.636000000     5.510000000     2.958000000
H    -1.909000000     4.755000000     2.437000000
H    -2.324000000     6.161000000     2.814000000
O     6.392000000    -2.900000000    -1.804000000
H     6.082000000    -2.012000000    -1.980000000
H     5.846000000    -3.205000000    -1.080000000
O     1.070000000    -5.171000000    -5.838000000
H     0.454000000    -5.752000000    -5.391000000
H     1.121000000    -4.398000000    -5.277000000
O    -1.103000000    -0.941000000    -3.946000000
H    -1.055000000     0.005000000    -3.811000000
H    -1.905000000    -1.206000000    -3.495000000
O     4.849000000    -3.576000000     0.214000000
H     3.957000000    -3.868000000     0.027000000
H     4.738000000    -2.813000000     0.781000000
O     0.548000000     3.764000000    -3.404000000
H    -0.299000000     3.386000000    -3.642000000
H     1.185000000     3.271000000    -3.922000000
O    -5.374000000     0.071000000    -3.636000000
H    -4.686000000    -0.040000000    -2.980000000
H    -6.110000000     0.445000000    -3.151000000
O     3.294000000     1.701000000     0.379000000
H     2.886000000     0.835000000     0.363000000
H     2.607000000     2.283000000     0.706000000
O     1.881000000     5.027000000    -1.283000000
H     2.795000000     5.019000000    -1.567000000
H     1.399000000     4.651000000    -2.020000000
O     1.722000000    -2.783000000     6.563000000
H     1.235000000    -2.462000000     5.803000000
H     2.192000000    -2.014000000     6.888000000
O     2.577000000    -0.455000000     3.989000000
H     1.635000000    -0.613000000     4.041000000
H     2.896000000    -0.614000000     4.878000000
O     1.776000000    -0.821000000    -5.587000000
H     1.293000000    -1.646000000    -5.534000000
H     2.618000000    -1.061000000    -5.973000000
O     5.039000000     3.308000000     1.570000000
H     5.131000000     2.956000000     2.455000000
H     4.627000000     2.602000000     1.073000000
O     5.310000000    -0.262000000    -5.320000000
H     5.660000000     0.537000000    -5.712000000
H     4.778000000    -0.656000000    -6.012000000
O    -2.346000000    -3.238000000     4.241000000
H    -2.410000000    -4.177000000     4.066000000
H    -2.887000000    -2.831000000     3.565000000
O    -4.343000000     2.340000000     3.955000000
H    -4.615000000     3.004000000     3.321000000
H    -4.005000000     1.622000000     3.420000000
O     4.783000000     1.389000000     3.681000000
H     4.243000000     0.706000000     3.283000000
H     4.275000000     1.685000000     4.437000000
O    -3.020000000     4.712000000     0.672000000
H    -3.805000000     5.196000000     0.930000000
H    -3.222000000     3.799000000     0.880000000
O    -3.845000000    -1.992000000     2.160000000
H    -3.395000000    -1.182000000     2.403000000
H    -3.695000000    -2.076000000     1.219000000
O     2.410000000    -4.595000000    -0.265000000
H     2.743000000    -5.466000000    -0.479000000
H     1.463000000    -4.711000000    -0.193000000
O     0.469000000    -2.385000000     4.302000000
H    -0.466000000    -2.545000000     4.174000000
H     0.899000000    -2.949000000     3.658000000
O     1.030000000    -3.220000000    -3.957000000
H     0.902000000    -3.832000000    -3.232000000
H     0.337000000    -2.569000000    -3.845000000
O    -5.505000000    -1.981000000    -0.801000000
H    -6.084000000    -1.323000000    -0.416000000
H    -6.097000000    -2.647000000    -1.149000000
O     2.644000000     1.512000000    -4.855000000
H     2.290000000     0.623000000    -4.882000000
H     3.257000000     1.503000000    -4.120000000
O    -1.767000000    -2.985000000    -1.604000000
H    -0.933000000    -3.268000000    -1.230000000
H    -2.236000000    -3.800000000    -1.788000000
O     3.990000000    -4.474000000     3.311000000
H     4.418000000    -5.327000000     3.242000000
H     3.905000000    -4.324000000     4.253000000
O    -4.800000000    -1.001000000     6.765000000
H    -4.213000000    -0.323000000     6.432000000
H    -4.391000000    -1.824000000     6.499000000
O    -2.522000000     0.041000000     5.080000000
H    -1.940000000    -0.719000000     5.075000000
H    -2.637000000     0.261000000     4.155000000
O     1.648000000    -5.687000000    -3.001000000
H     2.417000000    -6.185000000    -2.724000000
H     0.908000000    -6.154000000    -2.614000000
O    -7.542000000     4.240000000     1.954000000
H    -8.314000000     3.874000000     2.384000000
H    -7.239000000     3.544000000     1.371000000
O    -5.034000000     4.878000000     2.732000000
H    -4.903000000     5.598000000     3.348000000
H    -5.981000000     4.734000000     2.729000000
O     1.467000000    -3.962000000     2.414000000
H     1.684000000    -4.125000000     1.496000000
H     2.278000000    -4.147000000     2.888000000
