144
-2801.84621
O    -2.499000000    -2.907000000    -2.507000000
H    -2.938000000    -3.471000000    -3.144000000
H    -3.192000000    -2.337000000    -2.173000000
O    -2.664000000     3.785000000    -1.380000000
H    -3.219000000     4.565000000    -1.397000000
H    -1.789000000     4.118000000    -1.181000000
O     3.841000000    -3.561000000    -1.435000000
H     3.566000000    -3.481000000    -0.522000000
H     4.796000000    -3.622000000    -1.393000000
O    -0.050000000    -2.198000000     6.176000000
H    -0.259000000    -1.863000000     5.303000000
H     0.905000000    -2.259000000     6.186000000
O    -1.611000000    -4.813000000    -0.367000000
H    -1.883000000    -3.945000000    -0.663000000
H    -2.032000000    -5.417000000    -0.980000000
O    -3.439000000     1.102000000    -1.855000000
H    -2.765000000     1.753000000    -1.656000000
H    -3.685000000     0.745000000    -1.002000000
O    -5.794000000     3.252000000     3.380000000
H    -6.303000000     4.048000000     3.536000000
H    -5.939000000     2.718000000     4.160000000
O     7.331000000     1.444000000    -3.777000000
H     6.475000000     1.077000000    -3.998000000
H     7.144000000     2.098000000    -3.103000000
O     1.093000000     2.421000000    -5.518000000
H     0.177000000     2.700000000    -5.507000000
H     1.339000000     2.371000000    -4.594000000
O    -5.621000000    -3.609000000     0.048000000
H    -5.391000000    -2.857000000    -0.497000000
H    -6.553000000    -3.748000000    -0.117000000
O    -7.500000000    -2.059000000     1.959000000
H    -7.488000000    -2.887000000     2.439000000
H    -6.670000000    -1.639000000     2.187000000
O    -3.839000000    -1.144000000     4.953000000
H    -3.639000000    -0.784000000     4.090000000
H    -4.028000000    -2.068000000     4.789000000
O    -5.928000000     1.371000000     0.456000000
H    -5.099000000     1.061000000     0.821000000
H    -6.589000000     1.086000000     1.086000000
O     2.390000000     6.226000000    -0.931000000
H     2.706000000     6.806000000    -0.239000000
H     2.328000000     5.367000000    -0.513000000
O     3.301000000     1.844000000    -7.033000000
H     2.608000000     1.778000000    -6.376000000
H     2.904000000     2.338000000    -7.750000000
O     0.819000000     5.339000000    -4.515000000
H     0.484000000     4.525000000    -4.891000000
H     0.522000000     5.323000000    -3.605000000
O    -5.010000000    -1.292000000    -1.284000000
H    -5.151000000    -0.873000000    -2.133000000
H    -5.431000000    -0.705000000    -0.655000000
O    -5.815000000     2.290000000    -2.620000000
H    -6.117000000     2.739000000    -1.830000000
H    -5.144000000     1.683000000    -2.310000000
O     5.636000000    -0.707000000     1.576000000
H     6.474000000    -1.166000000     1.640000000
H     5.634000000    -0.334000000     0.694000000
O     2.638000000     2.574000000    -3.366000000
H     3.069000000     3.321000000    -2.952000000
H     3.350000000     2.087000000    -3.782000000
O     3.218000000     3.570000000     0.224000000
H     3.757000000     3.893000000     0.946000000
H     3.806000000     3.565000000    -0.531000000
O     6.320000000     2.999000000    -1.794000000
H     7.092000000     3.390000000    -1.384000000
H     5.850000000     3.740000000    -2.175000000
O    -3.124000000     3.170000000    -4.280000000
H    -3.272000000     2.232000000    -4.164000000
H    -3.110000000     3.523000000    -3.390000000
O    -3.252000000     0.711000000     7.245000000
H    -2.615000000     0.406000000     7.892000000
H    -3.115000000     0.141000000     6.488000000
O    -4.290000000    -5.241000000     4.576000000
H    -4.457000000    -4.844000000     3.721000000
H    -4.594000000    -6.144000000     4.484000000
O     1.851000000     1.491000000     2.067000000
H     1.162000000     1.466000000     1.403000000
H     2.608000000     1.860000000     1.612000000
O    -0.112000000     5.848000000    -1.943000000
H    -0.585000000     6.084000000    -1.145000000
H     0.811000000     5.952000000    -1.713000000
O    -0.737000000     2.140000000     4.875000000
H    -0.183000000     2.819000000     5.259000000
H    -1.624000000     2.496000000     4.930000000
O    -1.447000000    -5.393000000     2.302000000
H    -1.387000000    -5.294000000     1.352000000
H    -2.287000000    -4.996000000     2.532000000
O     6.599000000     0.330000000    -0.991000000
H     6.527000000    -0.282000000    -1.724000000
H     6.464000000     1.192000000    -1.384000000
O    -2.555000000     3.721000000     2.719000000
H    -3.121000000     3.445000000     1.998000000
H    -2.998000000     3.405000000     3.506000000
O    -3.897000000    -3.365000000     2.384000000
H    -3.556000000    -2.497000000     2.171000000
H    -4.674000000    -3.459000000     1.833000000
O     3.945000000    -2.796000000     1.288000000
H     4.314000000    -2.002000000     1.674000000
H     4.185000000    -3.493000000     1.897000000
O     2.594000000    -6.006000000     1.755000000
H     3.013000000    -6.754000000     1.330000000
H     1.942000000    -5.705000000     1.122000000
O     2.471000000    -3.798000000    -3.542000000
H     3.191000000    -3.839000000    -2.913000000
H     1.755000000    -3.384000000    -3.060000000
O     1.904000000    -0.365000000     3.897000000
H     0.953000000    -0.437000000     3.810000000
H     2.158000000     0.273000000     3.231000000
O     2.714000000    -2.026000000    -5.835000000
H     1.883000000    -1.665000000    -6.145000000
H     2.498000000    -2.438000000    -4.998000000
O    -0.766000000    -0.839000000     3.916000000
H    -1.457000000    -1.149000000     3.330000000
H    -1.081000000     0.009000000     4.229000000
O     4.684000000     1.071000000    -4.946000000
H     4.397000000     1.315000000    -5.826000000
H     5.040000000     0.189000000    -5.046000000
O     2.317000000    -3.156000000     3.812000000
H     2.307000000    -2.204000000     3.907000000
H     1.794000000    -3.325000000     3.029000000
O     0.303000000    -2.634000000    -2.784000000
H     0.313000000    -1.883000000    -2.190000000
H    -0.625000000    -2.788000000    -2.959000000
O     0.653000000    -0.329000000    -6.507000000
H     0.170000000    -0.255000000    -7.330000000
H     0.920000000     0.567000000    -6.304000000
O     0.479000000    -6.494000000     0.101000000
H    -0.064000000    -7.177000000     0.495000000
H    -0.147000000    -5.847000000    -0.223000000
O    -2.130000000    -4.014000000     6.091000000
H    -1.631000000    -3.218000000     5.908000000
H    -2.228000000    -4.437000000     5.237000000
O     0.616000000    -6.008000000     3.757000000
H     1.468000000    -5.912000000     3.331000000
H    -0.001000000    -5.594000000     3.154000000
O    -1.339000000     5.646000000     1.048000000
H    -1.328000000     4.972000000     1.727000000
H    -2.225000000     6.009000000     1.084000000
O    -5.639000000    -0.130000000     2.883000000
H    -5.622000000     0.478000000     3.622000000
H    -4.764000000    -0.064000000     2.499000000
O    -4.750000000     3.975000000     0.863000000
H    -4.804000000     3.117000000     0.442000000
H    -5.322000000     3.903000000     1.627000000
