144
-2781.24897
O    -0.292000000     6.214000000     0.595000000
H     0.547000000     6.318000000     0.146000000
H    -0.588000000     5.338000000     0.350000000
O     4.895000000    -0.889000000    -4.097000000
H     4.461000000    -1.732000000    -3.965000000
H     5.523000000    -1.050000000    -4.801000000
O     1.716000000     7.804000000    -3.922000000
H     2.391000000     7.736000000    -4.597000000
H     1.776000000     6.980000000    -3.440000000
O     0.248000000     2.340000000     5.585000000
H    -0.139000000     2.313000000     6.460000000
H    -0.267000000     1.713000000     5.077000000
O     4.118000000    -3.694000000    -2.610000000
H     3.359000000    -4.272000000    -2.537000000
H     4.183000000    -3.275000000    -1.751000000
O     2.677000000     4.549000000     2.089000000
H     3.234000000     3.956000000     2.593000000
H     3.175000000     5.365000000     2.044000000
O     0.902000000     5.785000000     3.714000000
H     0.092000000     5.997000000     3.251000000
H     1.458000000     5.379000000     3.049000000
O     5.430000000     0.404000000    -1.892000000
H     5.205000000     0.164000000    -2.791000000
H     4.595000000     0.653000000    -1.494000000
O    -3.484000000     4.129000000    -0.290000000
H    -3.376000000     4.637000000    -1.094000000
H    -2.590000000     3.949000000     0.001000000
O    -2.546000000    -0.324000000    -4.362000000
H    -1.807000000     0.268000000    -4.503000000
H    -3.277000000     0.095000000    -4.816000000
O     2.608000000    -1.576000000     3.670000000
H     3.065000000    -0.896000000     3.176000000
H     2.338000000    -2.213000000     3.008000000
O     4.054000000    -2.147000000     5.977000000
H     4.731000000    -1.479000000     5.872000000
H     3.789000000    -2.363000000     5.083000000
O     1.423000000     5.369000000    -2.523000000
H     1.744000000     6.016000000    -1.894000000
H     1.253000000     4.588000000    -1.997000000
O     4.007000000    -2.306000000    -0.210000000
H     4.827000000    -1.932000000     0.111000000
H     3.694000000    -2.853000000     0.511000000
O     2.445000000     3.780000000    -0.344000000
H     2.585000000     4.073000000     0.556000000
H     1.495000000     3.810000000    -0.461000000
O     2.931000000     1.015000000    -0.913000000
H     2.112000000     0.650000000    -1.248000000
H     2.693000000     1.889000000    -0.601000000
O     0.529000000    -4.768000000    -4.691000000
H     0.288000000    -4.872000000    -3.770000000
H    -0.244000000    -5.060000000    -5.174000000
O    -0.779000000     8.351000000    -1.432000000
H     0.036000000     8.811000000    -1.232000000
H    -0.886000000     7.728000000    -0.714000000
O     2.926000000     3.015000000     4.432000000
H     2.048000000     3.202000000     4.764000000
H     2.825000000     2.208000000     3.928000000
O     3.574000000     0.789000000     1.690000000
H     4.048000000     1.601000000     1.509000000
H     3.113000000     0.593000000     0.874000000
O    -1.907000000     4.582000000     3.522000000
H    -1.710000000     4.080000000     2.731000000
H    -2.154000000     5.449000000     3.200000000
O    -1.329000000     4.975000000     6.176000000
H    -0.894000000     4.261000000     6.644000000
H    -1.522000000     4.612000000     5.312000000
O     2.378000000    -6.133000000    -2.726000000
H     2.379000000    -6.245000000    -3.676000000
H     1.505000000    -5.796000000    -2.525000000
O     3.307000000    -3.796000000     1.879000000
H     3.747000000    -4.160000000     2.647000000
H     3.353000000    -4.493000000     1.224000000
O    -0.165000000    -1.218000000     4.845000000
H    -0.283000000    -2.135000000     4.594000000
H     0.677000000    -0.972000000     4.463000000
O    -1.801000000     7.119000000     2.614000000
H    -1.218000000     6.790000000     1.931000000
H    -2.474000000     7.608000000     2.140000000
O    -5.780000000     2.601000000    -0.443000000
H    -5.086000000     3.173000000    -0.116000000
H    -5.683000000     2.626000000    -1.395000000
O    -4.727000000     2.123000000     3.049000000
H    -4.380000000     1.418000000     2.502000000
H    -3.950000000     2.549000000     3.411000000
O    -1.805000000     5.243000000    -2.074000000
H    -1.511000000     5.663000000    -2.882000000
H    -1.045000000     4.746000000    -1.772000000
O    -2.343000000    -5.993000000     0.030000000
H    -3.070000000    -5.384000000    -0.105000000
H    -2.582000000    -6.768000000    -0.479000000
O     0.199000000    -3.845000000     4.003000000
H     0.275000000    -4.334000000     3.184000000
H     1.035000000    -3.988000000     4.446000000
O     2.048000000     7.174000000    -0.605000000
H     2.664000000     6.706000000    -0.041000000
H     1.986000000     8.048000000    -0.217000000
O    -0.233000000     1.262000000    -5.062000000
H    -0.595000000     0.931000000    -5.884000000
H     0.562000000     0.745000000    -4.926000000
O    -0.529000000    -5.909000000     2.004000000
H    -1.131000000    -5.895000000     1.260000000
H    -0.184000000    -6.802000000     2.016000000
O    -3.170000000    -1.957000000    -2.047000000
H    -3.073000000    -2.720000000    -2.617000000
H    -2.758000000    -1.242000000    -2.531000000
O     1.591000000    -3.038000000     7.147000000
H     1.719000000    -3.039000000     6.198000000
H     2.360000000    -2.586000000     7.492000000
O    -5.431000000     5.964000000     1.252000000
H    -4.584000000     5.520000000     1.294000000
H    -5.352000000     6.561000000     0.508000000
O     2.510000000     0.232000000    -5.165000000
H     3.386000000    -0.124000000    -5.019000000
H     1.926000000    -0.520000000    -5.065000000
O    -2.302000000     0.806000000     4.769000000
H    -3.215000000     0.546000000     4.648000000
H    -1.840000000    -0.015000000     4.941000000
O     2.306000000     4.708000000    -4.945000000
H     2.943000000     3.997000000    -4.873000000
H     2.055000000     4.898000000    -4.041000000
O    -3.085000000     0.542000000     1.306000000
H    -2.201000000     0.376000000     0.979000000
H    -3.120000000     1.490000000     1.431000000
O    -2.483000000     3.176000000    -4.307000000
H    -1.768000000     2.555000000    -4.448000000
H    -3.260000000     2.727000000    -4.640000000
O    -0.233000000    -5.329000000    -2.184000000
H    -0.108000000    -4.959000000    -1.310000000
H    -0.615000000    -6.192000000    -2.025000000
O     1.413000000    -2.214000000    -5.320000000
H     1.221000000    -3.100000000    -5.015000000
H     1.956000000    -2.341000000    -6.098000000
O     5.070000000     3.970000000    -1.447000000
H     5.064000000     4.882000000    -1.157000000
H     4.233000000     3.617000000    -1.144000000
O     2.462000000    -5.794000000     0.077000000
H     2.428000000    -6.246000000    -0.766000000
H     2.382000000    -6.492000000     0.727000000
O    -0.618000000    -1.583000000     7.408000000
H    -0.642000000    -1.495000000     6.455000000
H     0.231000000    -1.986000000     7.590000000
O    -5.267000000    -0.930000000     0.398000000
H    -4.836000000    -1.660000000    -0.047000000
H    -4.570000000    -0.291000000     0.540000000
