144
-2811.45188
O    -2.465000000    -1.096000000    -7.511000000
H    -2.561000000    -0.924000000    -6.574000000
H    -1.525000000    -1.225000000    -7.636000000
O     3.107000000    -0.043000000     0.356000000
H     3.067000000     0.205000000    -0.568000000
H     2.199000000    -0.229000000     0.594000000
O    -2.703000000    -5.053000000    -3.848000000
H    -3.432000000    -5.047000000    -4.468000000
H    -2.792000000    -5.884000000    -3.381000000
O     2.337000000     0.089000000     4.295000000
H     1.905000000     0.902000000     4.032000000
H     1.708000000    -0.338000000     4.877000000
O    -0.561000000    -4.275000000     3.040000000
H    -1.177000000    -5.006000000     3.094000000
H     0.289000000    -4.689000000     2.887000000
O     0.282000000    -1.713000000    -6.856000000
H     0.376000000    -2.647000000    -6.670000000
H     0.724000000    -1.591000000    -7.697000000
O     0.699000000     2.291000000    -4.787000000
H     0.837000000     2.530000000    -5.704000000
H     1.449000000     2.666000000    -4.326000000
O     1.874000000     1.981000000     7.345000000
H     1.160000000     2.240000000     6.762000000
H     1.468000000     1.925000000     8.210000000
O    -2.927000000     0.826000000     0.605000000
H    -3.428000000     0.514000000    -0.149000000
H    -2.023000000     0.582000000     0.410000000
O     0.949000000    -6.186000000    -4.022000000
H     0.983000000    -5.838000000    -3.131000000
H     1.293000000    -7.075000000    -3.944000000
O    -1.634000000     1.463000000    -3.969000000
H    -0.724000000     1.533000000    -4.259000000
H    -2.116000000     2.053000000    -4.547000000
O     3.501000000     5.316000000     4.848000000
H     2.868000000     5.601000000     5.507000000
H     4.047000000     6.086000000     4.691000000
O     2.602000000     3.831000000    -3.429000000
H     2.919000000     4.309000000    -2.663000000
H     2.313000000     4.514000000    -4.035000000
O    -1.073000000    -1.222000000     5.570000000
H    -2.018000000    -1.323000000     5.685000000
H    -0.826000000    -1.931000000     4.976000000
O     2.600000000     5.428000000    -0.634000000
H     3.344000000     4.870000000    -0.860000000
H     2.455000000     5.267000000     0.299000000
O     3.084000000     0.670000000    -2.286000000
H     2.832000000     1.589000000    -2.373000000
H     2.418000000     0.191000000    -2.779000000
O    -3.584000000     2.798000000    -2.514000000
H    -4.358000000     2.263000000    -2.688000000
H    -2.851000000     2.186000000    -2.581000000
O    -5.082000000     2.574000000     0.889000000
H    -4.865000000     3.494000000     1.035000000
H    -4.237000000     2.123000000     0.904000000
O     1.926000000     5.250000000     2.152000000
H     2.501000000     4.888000000     2.826000000
H     1.253000000     4.582000000     2.026000000
O     1.016000000     7.824000000     2.108000000
H     1.902000000     8.177000000     2.028000000
H     1.123000000     6.880000000     1.996000000
O     6.113000000     2.989000000     2.147000000
H     5.160000000     3.070000000     2.130000000
H     6.275000000     2.171000000     2.618000000
O    -0.611000000     5.445000000     3.500000000
H    -1.378000000     5.790000000     3.043000000
H    -0.360000000     4.671000000     2.995000000
O     3.918000000     1.062000000     6.152000000
H     3.182000000     1.377000000     6.677000000
H     3.627000000     1.166000000     5.246000000
O     3.774000000    -3.146000000    -2.022000000
H     4.574000000    -2.671000000    -2.250000000
H     3.239000000    -3.108000000    -2.815000000
O     2.014000000    -5.239000000     2.236000000
H     2.297000000    -4.424000000     1.822000000
H     2.588000000    -5.908000000     1.865000000
O    -1.667000000     4.732000000     0.421000000
H    -1.353000000     5.617000000     0.607000000
H    -1.015000000     4.157000000     0.822000000
O    -0.194000000    -4.255000000    -5.415000000
H    -0.888000000    -3.965000000    -4.822000000
H     0.050000000    -5.122000000    -5.092000000
O     1.787000000    -0.389000000    -4.847000000
H     1.247000000    -0.498000000    -5.630000000
H     2.544000000     0.115000000    -5.146000000
O     4.564000000    -5.576000000    -1.081000000
H     4.166000000    -4.742000000    -1.330000000
H     5.046000000    -5.854000000    -1.860000000
O    -4.105000000    -3.259000000     0.336000000
H    -3.520000000    -4.014000000     0.278000000
H    -4.896000000    -3.599000000     0.754000000
O    -2.843000000     4.702000000     5.396000000
H    -3.099000000     5.366000000     4.756000000
H    -2.128000000     4.225000000     4.975000000
O     5.044000000    -0.957000000     3.774000000
H     5.155000000    -0.669000000     2.867000000
H     4.266000000    -0.490000000     4.079000000
O    -2.633000000     0.479000000     3.420000000
H    -2.487000000    -0.460000000     3.532000000
H    -2.317000000     0.667000000     2.536000000
O    -1.296000000     4.485000000    -3.193000000
H    -1.906000000     4.121000000    -2.551000000
H    -0.707000000     3.760000000    -3.402000000
O    -2.634000000    -2.463000000     2.888000000
H    -2.926000000    -2.789000000     2.037000000
H    -1.817000000    -2.932000000     3.058000000
O     1.551000000    -4.894000000    -1.074000000
H     2.343000000    -5.225000000    -0.649000000
H     1.868000000    -4.230000000    -1.686000000
O    -3.298000000    -0.684000000    -4.919000000
H    -3.073000000     0.037000000    -4.332000000
H    -3.392000000    -1.443000000    -4.343000000
O     3.643000000     2.889000000     3.705000000
H     2.751000000     2.742000000     3.390000000
H     3.595000000     3.715000000     4.185000000
O    -0.502000000     7.213000000    -2.542000000
H    -0.614000000     6.326000000    -2.884000000
H    -0.757000000     7.148000000    -1.622000000
O    -3.725000000    -2.707000000    -3.226000000
H    -4.302000000    -2.819000000    -2.471000000
H    -3.294000000    -3.556000000    -3.325000000
O    -0.656000000    -6.509000000    -0.882000000
H    -0.933000000    -6.507000000     0.034000000
H     0.025000000    -5.838000000    -0.928000000
O    -4.809000000    -1.001000000    -0.964000000
H    -4.319000000    -1.748000000    -0.619000000
H    -5.404000000    -0.758000000    -0.255000000
O     2.072000000    -3.002000000    -4.124000000
H     1.792000000    -2.099000000    -3.973000000
H     1.557000000    -3.289000000    -4.878000000
O     3.231000000    -3.081000000     1.241000000
H     4.123000000    -2.854000000     1.506000000
H     3.195000000    -2.862000000     0.310000000
O    -1.340000000     1.159000000     7.430000000
H    -1.211000000     0.350000000     6.934000000
H    -1.227000000     1.856000000     6.784000000
O    -0.637000000     1.953000000     4.947000000
H     0.020000000     2.103000000     4.266000000
H    -1.406000000     1.640000000     4.472000000
O    -3.083000000    -6.046000000     0.820000000
H    -3.484000000    -6.914000000     0.784000000
H    -2.926000000    -5.894000000     1.752000000
O     0.181000000     6.034000000     6.179000000
H    -0.147000000     6.062000000     5.280000000
H    -0.480000000     6.501000000     6.690000000
