144
-2784.73129
O    -0.547000000    -1.663000000    -8.121000000
H     0.121000000    -2.348000000    -8.143000000
H    -0.929000000    -1.729000000    -7.246000000
O    -2.677000000    -3.083000000     4.848000000
H    -3.004000000    -2.270000000     5.233000000
H    -2.374000000    -2.829000000     3.976000000
O    -4.596000000    -4.308000000    -2.942000000
H    -5.119000000    -4.846000000    -3.537000000
H    -5.222000000    -3.995000000    -2.289000000
O     3.251000000     0.131000000    -0.371000000
H     3.584000000     0.678000000    -1.082000000
H     2.315000000     0.326000000    -0.337000000
O     2.462000000    -0.246000000     4.346000000
H     1.920000000     0.485000000     4.050000000
H     1.927000000    -1.023000000     4.183000000
O     0.322000000    -4.205000000     2.651000000
H     0.294000000    -4.971000000     2.078000000
H     1.154000000    -3.781000000     2.443000000
O     1.846000000    -3.043000000    -6.770000000
H     1.670000000    -2.395000000    -6.089000000
H     2.646000000    -3.484000000    -6.481000000
O     1.229000000     2.191000000    -4.422000000
H     2.058000000     2.315000000    -4.884000000
H     0.998000000     3.065000000    -4.107000000
O    -2.829000000     1.570000000    -0.754000000
H    -3.255000000     2.242000000    -1.286000000
H    -1.897000000     1.667000000    -0.947000000
O     0.434000000    -4.933000000    -4.369000000
H     0.636000000    -4.466000000    -5.180000000
H     0.666000000    -5.843000000    -4.554000000
O    -1.258000000     0.823000000    -5.112000000
H    -1.272000000    -0.091000000    -5.397000000
H    -0.341000000     1.086000000    -5.192000000
O     3.097000000     5.615000000     3.724000000
H     2.502000000     6.342000000     3.540000000
H     3.878000000     6.030000000     4.090000000
O     0.892000000    -2.472000000     5.333000000
H     0.215000000    -2.559000000     6.004000000
H     0.547000000    -2.953000000     4.581000000
O     4.506000000     3.668000000    -0.299000000
H     4.271000000     2.971000000    -0.911000000
H     3.775000000     3.703000000     0.318000000
O     3.582000000     2.082000000    -2.440000000
H     3.516000000     1.466000000    -3.170000000
H     3.761000000     2.926000000    -2.855000000
O    -2.092000000     2.953000000    -3.480000000
H    -2.987000000     2.627000000    -3.574000000
H    -1.567000000     2.375000000    -4.034000000
O    -4.164000000     2.711000000     2.679000000
H    -3.590000000     2.811000000     1.920000000
H    -4.315000000     1.768000000     2.743000000
O     1.092000000     6.116000000    -1.891000000
H     1.378000000     5.363000000    -1.374000000
H     0.367000000     6.489000000    -1.390000000
O     2.531000000     4.132000000     1.443000000
H     2.640000000     4.495000000     2.322000000
H     1.688000000     3.678000000     1.474000000
O     4.981000000     0.030000000     1.736000000
H     4.416000000     0.520000000     1.139000000
H     5.437000000    -0.597000000     1.174000000
O     0.215000000     4.024000000     4.826000000
H     0.344000000     3.460000000     4.064000000
H    -0.108000000     4.848000000     4.461000000
O    -2.820000000     1.749000000     7.155000000
H    -2.401000000     2.587000000     7.352000000
H    -2.329000000     1.406000000     6.408000000
O     1.556000000     2.651000000     6.797000000
H     1.089000000     1.838000000     6.988000000
H     1.044000000     3.065000000     6.103000000
O     3.248000000    -4.921000000    -2.972000000
H     4.190000000    -4.822000000    -3.113000000
H     2.872000000    -4.918000000    -3.852000000
O     0.588000000    -6.135000000     0.830000000
H     1.545000000    -6.170000000     0.816000000
H     0.351000000    -5.756000000    -0.017000000
O    -2.200000000     4.263000000     1.478000000
H    -1.865000000     4.205000000     0.583000000
H    -1.454000000     4.027000000     2.028000000
O    -1.820000000    -2.584000000    -5.766000000
H    -2.713000000    -2.911000000    -5.871000000
H    -1.410000000    -3.198000000    -5.158000000
O     1.668000000    -0.899000000    -4.825000000
H     2.086000000    -1.210000000    -4.023000000
H     1.675000000     0.055000000    -4.745000000
O    -5.062000000    -4.383000000     0.481000000
H    -4.159000000    -4.680000000     0.370000000
H    -5.587000000    -5.179000000     0.407000000
O     4.892000000    -2.267000000     3.400000000
H     4.799000000    -1.324000000     3.532000000
H     4.077000000    -2.530000000     2.972000000
O     3.924000000     0.963000000     6.153000000
H     3.431000000     1.780000000     6.070000000
H     3.561000000     0.394000000     5.474000000
O    -4.113000000     5.959000000     0.448000000
H    -4.227000000     5.663000000    -0.455000000
H    -3.452000000     5.370000000     0.812000000
O    -3.060000000    -0.265000000     1.125000000
H    -2.132000000    -0.429000000     1.294000000
H    -3.066000000     0.313000000     0.362000000
O    -1.401000000     4.821000000    -1.277000000
H    -1.632000000     4.462000000    -2.133000000
H    -1.720000000     5.723000000    -1.302000000
O    -1.902000000    -2.558000000     2.276000000
H    -2.188000000    -2.419000000     1.373000000
H    -1.355000000    -3.342000000     2.236000000
O     3.555000000    -5.192000000     0.216000000
H     4.428000000    -5.502000000     0.459000000
H     3.637000000    -4.944000000    -0.704000000
O    -3.618000000     0.020000000    -5.947000000
H    -4.174000000    -0.188000000    -5.196000000
H    -2.883000000     0.506000000    -5.573000000
O     3.432000000     2.869000000     4.089000000
H     2.769000000     2.450000000     3.541000000
H     3.190000000     3.795000000     4.093000000
O    -3.771000000     5.078000000     3.812000000
H    -3.306000000     5.592000000     3.152000000
H    -3.713000000     4.176000000     3.498000000
O    -5.026000000    -2.206000000    -0.883000000
H    -4.213000000    -2.424000000    -1.338000000
H    -4.949000000    -2.640000000    -0.033000000
O    -0.139000000    -5.249000000    -1.709000000
H    -0.114000000    -4.603000000    -2.415000000
H     0.147000000    -6.065000000    -2.119000000
O    -3.457000000    -0.279000000     4.091000000
H    -2.706000000     0.290000000     4.260000000
H    -3.242000000    -0.723000000     3.270000000
O     4.145000000    -0.967000000    -3.616000000
H     4.645000000    -1.289000000    -2.866000000
H     4.602000000    -1.322000000    -4.378000000
O     2.634000000    -2.744000000     1.537000000
H     2.907000000    -1.922000000     1.131000000
H     3.095000000    -3.421000000     1.040000000
O    -3.586000000    -6.988000000    -3.021000000
H    -3.108000000    -7.415000000    -2.310000000
H    -3.490000000    -6.052000000    -2.845000000
O    -1.056000000     0.717000000     5.223000000
H    -0.394000000     0.333000000     5.798000000
H    -0.553000000     1.209000000     4.574000000
O    -2.365000000    -5.003000000    -0.007000000
H    -1.654000000    -5.108000000    -0.640000000
H    -2.100000000    -5.537000000     0.742000000
O     0.310000000     6.340000000     2.759000000
H     0.564000000     7.204000000     2.434000000
H    -0.411000000     6.072000000     2.191000000
