144
-2838.49391
O     3.293000000     0.265000000    -0.262000000
H     3.538000000    -0.079000000    -1.121000000
H     2.336000000     0.257000000    -0.264000000
O     4.244000000    -3.076000000    -2.053000000
H     5.020000000    -3.378000000    -2.526000000
H     3.508000000    -3.459000000    -2.532000000
O     0.021000000     0.024000000     4.699000000
H    -0.291000000     0.927000000     4.637000000
H     0.952000000     0.077000000     4.481000000
O     2.278000000    -3.861000000    -3.986000000
H     2.100000000    -3.146000000    -4.597000000
H     2.319000000    -4.643000000    -4.537000000
O     3.061000000     6.411000000    -0.312000000
H     3.865000000     6.635000000    -0.782000000
H     2.612000000     5.792000000    -0.887000000
O     0.858000000     1.674000000    -4.429000000
H     1.149000000     0.848000000    -4.817000000
H    -0.027000000     1.800000000    -4.771000000
O     5.900000000    -4.261000000     1.004000000
H     5.350000000    -3.488000000     0.877000000
H     6.566000000    -4.197000000     0.319000000
O     4.326000000     4.004000000     2.547000000
H     3.685000000     4.548000000     2.091000000
H     5.171000000     4.401000000     2.337000000
O     4.184000000    -2.379000000     0.557000000
H     4.031000000    -1.434000000     0.566000000
H     4.129000000    -2.622000000    -0.367000000
O    -4.905000000     0.933000000     2.221000000
H    -4.878000000     0.448000000     1.395000000
H    -5.367000000     1.743000000     2.007000000
O    -1.473000000     2.753000000    -5.496000000
H    -1.833000000     3.090000000    -6.317000000
H    -1.490000000     3.503000000    -4.902000000
O    -1.074000000    -2.827000000    -5.359000000
H    -1.116000000    -2.276000000    -4.577000000
H    -1.552000000    -3.621000000    -5.119000000
O    -0.004000000     6.770000000     3.606000000
H     0.625000000     6.057000000     3.501000000
H     0.171000000     7.355000000     2.869000000
O     0.898000000     0.046000000     7.272000000
H     1.024000000    -0.794000000     7.714000000
H     0.606000000    -0.187000000     6.391000000
O     1.997000000     4.414000000    -1.645000000
H     2.653000000     4.059000000    -1.046000000
H     1.232000000     3.852000000    -1.523000000
O     4.177000000     3.306000000    -0.423000000
H     4.120000000     2.368000000    -0.603000000
H     5.115000000     3.495000000    -0.427000000
O    -2.069000000    -1.800000000    -3.076000000
H    -1.683000000    -1.706000000    -2.205000000
H    -2.510000000    -0.965000000    -3.234000000
O    -3.230000000     3.004000000     4.942000000
H    -3.440000000     3.364000000     5.803000000
H    -2.937000000     3.759000000     4.431000000
O    -0.325000000     6.688000000    -0.318000000
H    -0.497000000     5.760000000    -0.475000000
H    -1.193000000     7.088000000    -0.269000000
O     1.678000000     5.188000000     1.938000000
H     1.654000000     5.826000000     1.225000000
H     0.993000000     4.557000000     1.716000000
O    -0.525000000     2.549000000     3.957000000
H    -0.451000000     2.810000000     3.039000000
H    -1.312000000     2.994000000     4.270000000
O    -3.511000000     6.098000000    -2.467000000
H    -3.432000000     5.297000000    -2.986000000
H    -3.355000000     6.805000000    -3.093000000
O     1.602000000    -5.622000000    -0.708000000
H     2.526000000    -5.382000000    -0.780000000
H     1.482000000    -6.312000000    -1.360000000
O    -2.169000000     4.940000000     3.222000000
H    -1.709000000     4.373000000     2.603000000
H    -1.557000000     5.656000000     3.391000000
O     3.486000000     2.499000000    -4.047000000
H     3.569000000     1.735000000    -3.475000000
H     2.616000000     2.412000000    -4.436000000
O    -3.623000000    -4.080000000    -3.406000000
H    -3.076000000    -3.311000000    -3.248000000
H    -4.124000000    -4.188000000    -2.597000000
O     3.481000000    -0.580000000    -2.891000000
H     2.846000000    -0.616000000    -3.606000000
H     3.996000000    -1.382000000    -2.988000000
O    -2.416000000    -4.272000000     2.860000000
H    -1.523000000    -4.098000000     3.157000000
H    -2.960000000    -3.675000000     3.374000000
O    -4.389000000     5.525000000     1.277000000
H    -3.604000000     5.706000000     1.794000000
H    -4.206000000     5.912000000     0.421000000
O    -4.696000000     0.553000000     4.906000000
H    -4.248000000     1.361000000     5.159000000
H    -4.734000000     0.590000000     3.950000000
O     2.514000000    -1.171000000    -5.287000000
H     2.026000000    -1.691000000    -5.926000000
H     3.250000000    -0.812000000    -5.782000000
O    -2.662000000     3.124000000    -2.029000000
H    -3.296000000     3.263000000    -1.325000000
H    -1.863000000     3.549000000    -1.718000000
O    -2.523000000    -7.373000000     0.287000000
H    -2.827000000    -7.968000000     0.973000000
H    -3.119000000    -6.625000000     0.337000000
O     0.237000000    -4.182000000     4.002000000
H     0.632000000    -4.880000000     3.480000000
H     0.837000000    -4.064000000     4.738000000
O     3.165000000    -3.008000000     3.114000000
H     2.802000000    -3.851000000     3.387000000
H     3.426000000    -3.143000000     2.203000000
O     1.132000000     4.151000000     5.021000000
H     1.984000000     3.909000000     4.660000000
H     0.513000000     3.563000000     4.590000000
O     1.038000000     7.013000000    -3.089000000
H     0.804000000     7.941000000    -3.109000000
H     0.771000000     6.718000000    -2.218000000
O    -3.210000000    -0.176000000     0.102000000
H    -2.405000000    -0.015000000     0.593000000
H    -3.508000000     0.694000000    -0.163000000
O    -2.960000000     7.556000000    -0.283000000
H    -3.294000000     7.092000000    -1.051000000
H    -3.256000000     8.459000000    -0.401000000
O     0.169000000    -6.351000000     1.267000000
H     0.464000000    -5.793000000     0.546000000
H    -0.651000000    -6.732000000     0.954000000
O    -3.437000000    -4.808000000     0.402000000
H    -2.902000000    -4.734000000     1.192000000
H    -3.640000000    -3.904000000     0.164000000
O    -1.463000000    -2.193000000     4.441000000
H    -0.898000000    -1.424000000     4.519000000
H    -0.859000000    -2.920000000     4.289000000
O     2.527000000    -0.396000000     4.164000000
H     3.144000000    -0.054000000     3.517000000
H     2.541000000    -1.343000000     4.031000000
O    -4.238000000    -2.272000000     4.669000000
H    -4.687000000    -1.430000000     4.598000000
H    -3.309000000    -2.056000000     4.593000000
O    -0.010000000     4.466000000    -3.717000000
H     0.525000000     5.007000000    -3.137000000
H     0.533000000     3.698000000    -3.897000000
O    -4.433000000    -2.490000000    -0.565000000
H    -4.138000000    -1.654000000    -0.205000000
H    -5.042000000    -2.248000000    -1.264000000
O    -2.694000000     1.131000000    -3.869000000
H    -2.193000000     1.600000000    -4.536000000
H    -2.721000000     1.730000000    -3.124000000
O     2.465000000    -5.877000000     3.001000000
H     2.138000000    -6.720000000     3.316000000
H     2.040000000    -5.758000000     2.152000000
