144
-2807.64940
O     5.309000000     1.253000000     0.072000000
H     5.158000000     1.014000000    -0.843000000
H     4.653000000     1.926000000     0.255000000
O    -2.058000000     2.541000000     6.503000000
H    -1.939000000     1.695000000     6.072000000
H    -1.649000000     2.432000000     7.362000000
O    -0.420000000     6.463000000     1.009000000
H    -0.839000000     5.607000000     0.914000000
H    -0.936000000     6.909000000     1.680000000
O    -3.496000000     1.489000000    -1.155000000
H    -3.395000000     2.096000000    -0.422000000
H    -3.156000000     1.968000000    -1.912000000
O     5.681000000    -2.835000000    -0.771000000
H     5.891000000    -3.766000000    -0.704000000
H     5.433000000    -2.711000000    -1.688000000
O    -4.359000000    -0.946000000    -1.546000000
H    -3.748000000    -1.662000000    -1.370000000
H    -3.843000000    -0.152000000    -1.409000000
O     1.996000000     7.134000000     0.350000000
H     1.151000000     6.828000000     0.681000000
H     2.511000000     7.311000000     1.137000000
O    -6.087000000     3.025000000     0.607000000
H    -6.770000000     2.372000000     0.451000000
H    -6.253000000     3.706000000    -0.044000000
O    -4.063000000     4.089000000     2.431000000
H    -4.834000000     3.712000000     2.007000000
H    -3.342000000     3.514000000     2.174000000
O    -2.360000000    -2.823000000    -0.781000000
H    -2.146000000    -3.563000000    -1.349000000
H    -1.510000000    -2.484000000    -0.499000000
O     3.026000000    -0.157000000    -3.917000000
H     3.686000000    -0.847000000    -3.856000000
H     2.718000000    -0.040000000    -3.019000000
O    -2.576000000    -2.206000000     3.989000000
H    -3.139000000    -2.880000000     3.609000000
H    -3.184000000    -1.558000000     4.345000000
O     2.339000000     1.688000000     4.481000000
H     3.207000000     1.724000000     4.885000000
H     2.513000000     1.669000000     3.540000000
O    -1.370000000    -2.718000000     6.620000000
H    -1.540000000    -2.577000000     5.689000000
H    -0.436000000    -2.534000000     6.723000000
O     3.405000000     3.177000000     0.395000000
H     3.915000000     3.812000000     0.898000000
H     3.227000000     3.617000000    -0.436000000
O     4.276000000    -1.704000000     1.576000000
H     3.633000000    -1.027000000     1.365000000
H     4.667000000    -1.934000000     0.733000000
O     1.078000000     4.288000000    -0.768000000
H     1.270000000     4.913000000    -0.069000000
H     0.246000000     3.890000000    -0.512000000
O     2.536000000     1.131000000     1.958000000
H     1.755000000     0.749000000     1.558000000
H     2.836000000     1.782000000     1.323000000
O     2.564000000    -4.673000000    -4.061000000
H     1.745000000    -5.115000000    -3.835000000
H     2.289000000    -3.879000000    -4.521000000
O    -4.470000000     6.885000000     2.492000000
H    -4.420000000     5.929000000     2.487000000
H    -5.220000000     7.088000000     1.932000000
O    -1.541000000    -4.442000000    -2.710000000
H    -1.772000000    -4.158000000    -3.595000000
H    -0.857000000    -5.099000000    -2.840000000
O     1.714000000     4.405000000     4.381000000
H     0.774000000     4.390000000     4.203000000
H     1.949000000     3.486000000     4.510000000
O    -3.914000000    -0.124000000     5.794000000
H    -4.777000000     0.278000000     5.887000000
H    -3.565000000     0.242000000     4.981000000
O    -1.260000000     4.281000000     3.732000000
H    -1.372000000     3.706000000     4.490000000
H    -1.507000000     3.739000000     2.982000000
O     3.936000000    -5.982000000    -1.934000000
H     3.601000000    -6.369000000    -1.125000000
H     3.225000000    -5.419000000    -2.242000000
O     1.328000000    -2.602000000     5.847000000
H     1.845000000    -2.786000000     5.063000000
H     1.875000000    -2.907000000     6.571000000
O    -5.150000000     0.738000000     1.741000000
H    -4.479000000     0.148000000     1.397000000
H    -4.832000000     1.615000000     1.526000000
O     0.385000000    -6.031000000    -3.892000000
H    -0.174000000    -6.205000000    -4.648000000
H     0.725000000    -6.890000000    -3.642000000
O    -4.580000000     3.271000000     5.756000000
H    -4.493000000     3.332000000     4.805000000
H    -3.779000000     2.833000000     6.043000000
O    -3.027000000     4.704000000    -1.188000000
H    -2.993000000     5.659000000    -1.253000000
H    -2.197000000     4.463000000    -0.776000000
O    -0.479000000    -6.099000000     0.534000000
H    -1.266000000    -6.518000000     0.186000000
H     0.121000000    -6.824000000     0.708000000
O    -0.869000000    -4.446000000     2.760000000
H    -1.319000000    -3.608000000     2.657000000
H    -0.758000000    -4.770000000     1.866000000
O    -1.952000000    -3.380000000    -5.198000000
H    -2.475000000    -2.580000000    -5.233000000
H    -1.402000000    -3.341000000    -5.980000000
O     0.618000000     1.150000000    -5.126000000
H     0.526000000     1.135000000    -6.078000000
H     1.391000000     0.612000000    -4.952000000
O     2.946000000    -5.311000000     2.287000000
H     2.673000000    -5.100000000     1.394000000
H     2.823000000    -4.496000000     2.774000000
O    -5.586000000     5.056000000    -1.337000000
H    -4.656000000     5.126000000    -1.121000000
H    -5.837000000     5.941000000    -1.601000000
O    -4.094000000    -3.235000000     1.411000000
H    -3.622000000    -2.898000000     0.649000000
H    -4.967000000    -2.847000000     1.343000000
O    -0.462000000    -5.758000000     5.055000000
H    -0.613000000    -5.295000000     4.230000000
H    -0.959000000    -5.260000000     5.703000000
O    -1.800000000     7.027000000     3.153000000
H    -1.704000000     6.151000000     3.528000000
H    -2.691000000     7.042000000     2.804000000
O     4.735000000    -2.660000000    -3.161000000
H     5.277000000    -2.486000000    -3.931000000
H     4.043000000    -3.239000000    -3.482000000
O     0.295000000    -0.225000000     4.809000000
H     0.726000000    -1.037000000     5.078000000
H     1.013000000     0.362000000     4.575000000
O    -6.632000000     0.735000000     4.123000000
H    -6.188000000     0.911000000     3.293000000
H    -7.074000000    -0.103000000     3.984000000
O     4.036000000     2.331000000    -4.717000000
H     3.691000000     1.485000000    -4.431000000
H     3.600000000     2.970000000    -4.153000000
O     1.383000000     5.501000000    -3.627000000
H     1.060000000     4.965000000    -4.351000000
H     1.138000000     5.015000000    -2.840000000
O    -2.456000000     1.125000000     3.960000000
H    -1.624000000     0.659000000     3.879000000
H    -2.517000000     1.647000000     3.160000000
O    -0.492000000     3.822000000    -4.972000000
H    -0.174000000     2.925000000    -4.870000000
H    -1.443000000     3.734000000    -5.027000000
O     1.778000000    -2.345000000    -5.433000000
H     1.118000000    -1.684000000    -5.641000000
H     2.086000000    -2.653000000    -6.285000000
O     2.978000000    -2.889000000     3.690000000
H     3.482000000    -2.591000000     4.447000000
H     3.394000000    -2.462000000     2.942000000
