144
-2806.13336
O    -0.845000000    -2.490000000     2.166000000
H    -1.117000000    -1.633000000     1.839000000
H    -1.637000000    -2.860000000     2.558000000
O     2.773000000     0.299000000    -2.183000000
H     1.939000000     0.322000000    -1.714000000
H     2.692000000    -0.445000000    -2.779000000
O    -5.459000000    -0.250000000    -2.511000000
H    -5.642000000    -0.007000000    -1.603000000
H    -4.658000000     0.227000000    -2.730000000
O    -0.673000000    -0.560000000     4.430000000
H    -0.136000000     0.229000000     4.499000000
H    -1.237000000    -0.401000000     3.673000000
O    -3.131000000    -2.213000000    -3.949000000
H    -3.118000000    -1.334000000    -3.570000000
H    -2.843000000    -2.087000000    -4.853000000
O     0.154000000     5.918000000     3.267000000
H    -0.673000000     6.195000000     3.661000000
H     0.720000000     6.687000000     3.331000000
O    -6.690000000     5.532000000    -1.356000000
H    -6.848000000     5.305000000    -0.440000000
H    -5.851000000     5.121000000    -1.563000000
O    -2.410000000     3.584000000    -7.265000000
H    -2.834000000     2.954000000    -6.683000000
H    -2.383000000     4.396000000    -6.760000000
O    -4.194000000     2.191000000     1.137000000
H    -3.837000000     2.149000000     0.249000000
H    -3.443000000     2.417000000     1.686000000
O    -3.230000000     1.526000000    -5.543000000
H    -3.304000000     1.504000000    -4.589000000
H    -2.460000000     0.992000000    -5.736000000
O    -7.117000000    -1.398000000    -4.352000000
H    -6.931000000    -2.324000000    -4.198000000
H    -6.395000000    -0.935000000    -3.926000000
O     5.799000000     2.747000000     3.139000000
H     4.903000000     2.497000000     3.363000000
H     6.133000000     2.011000000     2.628000000
O    -0.839000000    -6.409000000    -0.490000000
H    -0.850000000    -5.944000000    -1.326000000
H    -0.006000000    -6.880000000    -0.488000000
O     4.124000000     1.669000000    -0.039000000
H     3.427000000     2.325000000    -0.073000000
H     3.818000000     0.966000000    -0.611000000
O     0.619000000    -0.944000000    -5.771000000
H     1.001000000    -0.291000000    -6.358000000
H     1.351000000    -1.236000000    -5.228000000
O     2.655000000    -3.461000000    -1.582000000
H     2.880000000    -3.924000000    -0.775000000
H     3.328000000    -3.730000000    -2.208000000
O    -5.416000000     3.585000000     3.169000000
H    -5.141000000     3.124000000     2.377000000
H    -5.900000000     2.930000000     3.672000000
O    -2.080000000    -1.505000000    -6.371000000
H    -2.476000000    -0.882000000    -6.980000000
H    -1.193000000    -1.173000000    -6.232000000
O    -0.573000000     4.356000000     1.044000000
H    -1.298000000     4.944000000     0.833000000
H    -0.219000000     4.697000000     1.865000000
O     5.632000000     0.274000000     1.721000000
H     5.426000000    -0.655000000     1.833000000
H     4.855000000     0.642000000     1.299000000
O     0.332000000     2.145000000     4.440000000
H    -0.089000000     2.611000000     5.162000000
H     1.269000000     2.226000000     4.617000000
O    -3.030000000    -0.221000000     3.035000000
H    -3.777000000    -0.075000000     2.454000000
H    -2.535000000     0.598000000     2.998000000
O    -2.638000000     5.811000000    -0.082000000
H    -1.861000000     6.356000000    -0.204000000
H    -3.295000000     6.406000000     0.277000000
O     0.519000000    -5.403000000    -3.067000000
H     1.162000000    -5.016000000    -2.473000000
H     0.178000000    -4.663000000    -3.568000000
O     3.680000000    -1.497000000     6.910000000
H     4.094000000    -0.645000000     7.046000000
H     3.880000000    -1.991000000     7.705000000
O    -2.676000000     4.901000000     4.320000000
H    -2.566000000     5.852000000     4.292000000
H    -3.545000000     4.749000000     3.948000000
O     5.425000000    -2.758000000     2.337000000
H     6.233000000    -2.388000000     2.691000000
H     4.794000000    -2.686000000     3.054000000
O    -3.781000000    -3.577000000    -1.603000000
H    -3.863000000    -3.017000000    -2.375000000
H    -4.143000000    -3.053000000    -0.888000000
O    -5.467000000    -4.576000000    -3.764000000
H    -4.814000000    -4.145000000    -3.212000000
H    -4.995000000    -5.300000000    -4.174000000
O    -5.630000000    -0.086000000    -6.808000000
H    -4.924000000     0.381000000    -6.359000000
H    -5.510000000    -1.001000000    -6.554000000
O    -4.208000000     4.345000000    -1.804000000
H    -3.533000000     4.721000000    -1.239000000
H    -4.055000000     3.401000000    -1.764000000
O    -0.602000000    -3.261000000    -4.307000000
H    -1.368000000    -2.875000000    -3.880000000
H    -0.366000000    -2.632000000    -4.989000000
O     5.767000000     3.193000000    -1.817000000
H     5.554000000     2.674000000    -1.042000000
H     6.542000000     2.769000000    -2.185000000
O    -5.337000000    -2.576000000     0.521000000
H    -5.735000000    -1.707000000     0.585000000
H    -6.036000000    -3.135000000     0.180000000
O     3.519000000    -2.133000000     4.317000000
H     2.577000000    -2.023000000     4.189000000
H     3.639000000    -2.084000000     5.266000000
O     1.741000000     5.917000000    -0.929000000
H     2.555000000     6.270000000    -0.569000000
H     1.786000000     4.979000000    -0.746000000
O    -0.428000000     3.845000000    -2.880000000
H    -1.315000000     3.505000000    -2.998000000
H    -0.323000000     3.915000000    -1.931000000
O     2.501000000    -1.913000000    -4.047000000
H     2.425000000    -2.512000000    -3.304000000
H     3.384000000    -2.061000000    -4.385000000
O     1.204000000    -4.453000000     1.657000000
H     0.754000000    -5.178000000     2.091000000
H     0.499000000    -3.876000000     1.362000000
O    -4.921000000     4.262000000    -4.797000000
H    -4.630000000     4.218000000    -3.886000000
H    -4.170000000     4.620000000    -5.271000000
O     3.680000000    -4.544000000     0.925000000
H     4.144000000    -3.872000000     1.424000000
H     2.765000000    -4.450000000     1.190000000
O     2.958000000     3.162000000     4.006000000
H     2.736000000     4.052000000     3.733000000
H     3.236000000     3.253000000     4.917000000
O    -6.284000000     0.154000000     0.448000000
H    -6.884000000     0.488000000     1.114000000
H    -5.629000000     0.845000000     0.347000000
O     4.658000000    -6.051000000     3.296000000
H     4.074000000    -5.464000000     2.816000000
H     4.247000000    -6.913000000     3.218000000
O     1.813000000     3.059000000    -0.216000000
H     1.361000000     3.376000000     0.566000000
H     1.268000000     2.338000000    -0.531000000
O     0.672000000    -2.856000000     4.562000000
H     0.119000000    -2.081000000     4.464000000
H     1.016000000    -3.017000000     3.683000000
O     8.215000000     0.077000000     0.717000000
H     7.518000000    -0.095000000     1.350000000
H     8.292000000     1.031000000     0.699000000
O    -2.174000000     2.274000000     3.083000000
H    -2.463000000     3.036000000     3.584000000
H    -1.242000000     2.193000000     3.287000000
