144
-2816.74157
O     4.470000000    -0.808000000    -2.320000000
H     3.802000000    -0.128000000    -2.407000000
H     4.788000000    -0.718000000    -1.422000000
O    -4.236000000     6.924000000     2.711000000
H    -3.474000000     6.734000000     2.163000000
H    -4.439000000     6.091000000     3.136000000
O     6.389000000    -0.197000000    -0.244000000
H     6.091000000     0.148000000     0.598000000
H     7.298000000     0.096000000    -0.314000000
O     0.608000000    -0.898000000    -5.279000000
H    -0.125000000    -0.442000000    -4.866000000
H     0.257000000    -1.210000000    -6.113000000
O    -2.499000000     7.089000000    -1.601000000
H    -2.413000000     7.712000000    -0.880000000
H    -2.624000000     6.242000000    -1.172000000
O     3.817000000    -3.855000000    -2.226000000
H     4.119000000    -2.965000000    -2.409000000
H     3.225000000    -4.061000000    -2.949000000
O    -2.301000000    -0.978000000     4.445000000
H    -3.085000000    -0.983000000     4.993000000
H    -2.586000000    -0.576000000     3.624000000
O    -3.311000000    -3.535000000     1.155000000
H    -3.424000000    -2.645000000     0.820000000
H    -3.966000000    -4.052000000     0.686000000
O    -1.328000000    -5.240000000     1.815000000
H    -1.926000000    -4.525000000     1.598000000
H    -1.859000000    -6.032000000     1.726000000
O    -2.680000000    -4.500000000    -2.625000000
H    -2.798000000    -3.731000000    -2.067000000
H    -1.787000000    -4.792000000    -2.445000000
O    -6.051000000    -1.328000000     0.516000000
H    -5.632000000    -1.848000000     1.203000000
H    -5.938000000    -0.421000000     0.800000000
O     5.508000000    -2.450000000     3.449000000
H     5.950000000    -3.221000000     3.095000000
H     4.585000000    -2.702000000     3.493000000
O    -1.620000000     6.041000000     1.564000000
H    -0.830000000     6.579000000     1.608000000
H    -1.298000000     5.140000000     1.578000000
O     2.497000000     6.620000000     3.267000000
H     3.430000000     6.406000000     3.274000000
H     2.079000000     5.852000000     2.876000000
O    -0.809000000    -7.238000000    -4.412000000
H    -1.266000000    -6.440000000    -4.678000000
H    -0.530000000    -7.066000000    -3.512000000
O    -0.537000000    -4.059000000    -4.975000000
H    -1.357000000    -4.067000000    -4.481000000
H    -0.614000000    -3.301000000    -5.555000000
O    -4.038000000     4.243000000    -0.296000000
H    -3.087000000     4.225000000    -0.186000000
H    -4.169000000     4.560000000    -1.190000000
O     1.135000000     6.395000000     0.703000000
H     1.193000000     5.443000000     0.625000000
H     0.656000000     6.670000000    -0.080000000
O     4.560000000     2.231000000     4.527000000
H     4.015000000     1.446000000     4.574000000
H     4.078000000     2.888000000     5.030000000
O     0.528000000     7.107000000    -1.956000000
H     1.259000000     7.480000000    -2.447000000
H    -0.249000000     7.522000000    -2.330000000
O    -5.430000000     0.422000000    -2.276000000
H    -5.837000000     1.285000000    -2.343000000
H    -6.114000000    -0.187000000    -2.555000000
O     2.321000000    -2.301000000     3.442000000
H     1.605000000    -2.812000000     3.818000000
H     2.145000000    -1.402000000     3.719000000
O     2.472000000     3.710000000    -1.405000000
H     2.319000000     2.790000000    -1.620000000
H     1.929000000     3.869000000    -0.633000000
O    -4.965000000     1.769000000     0.274000000
H    -5.310000000     1.393000000    -0.536000000
H    -4.587000000     2.607000000     0.008000000
O    -3.038000000     0.174000000     2.180000000
H    -3.817000000     0.510000000     1.736000000
H    -2.315000000     0.398000000     1.594000000
O     2.984000000     5.663000000    -3.228000000
H     3.883000000     5.832000000    -2.948000000
H     2.695000000     4.934000000    -2.679000000
O    -1.003000000     3.261000000     4.169000000
H    -1.456000000     3.114000000     4.999000000
H    -1.606000000     2.930000000     3.504000000
O     3.201000000     4.505000000     5.585000000
H     3.112000000     5.306000000     6.101000000
H     2.454000000     4.521000000     4.987000000
O     2.432000000    -7.411000000    -0.938000000
H     3.180000000    -6.848000000    -1.137000000
H     2.007000000    -6.988000000    -0.192000000
O    -0.156000000     1.808000000    -3.719000000
H     0.393000000     2.194000000    -4.402000000
H    -0.580000000     2.558000000    -3.302000000
O    -3.345000000     1.098000000    -4.366000000
H    -3.628000000     0.748000000    -3.521000000
H    -3.653000000     0.457000000    -5.007000000
O    -4.165000000    -1.973000000    -1.549000000
H    -5.019000000    -2.405000000    -1.567000000
H    -4.365000000    -1.043000000    -1.654000000
O    -6.367000000     2.992000000    -2.691000000
H    -5.607000000     3.113000000    -3.261000000
H    -7.119000000     3.190000000    -3.249000000
O    -0.405000000    -6.122000000    -1.983000000
H     0.340000000    -5.600000000    -1.686000000
H    -0.656000000    -6.638000000    -1.217000000
O    -6.113000000     3.395000000     2.250000000
H    -6.482000000     4.113000000     2.765000000
H    -5.739000000     3.820000000     1.479000000
O     3.740000000     7.080000000    -0.118000000
H     3.707000000     6.762000000    -1.020000000
H     2.918000000     6.783000000     0.271000000
O     1.296000000    -5.797000000     1.284000000
H     0.627000000    -5.113000000     1.317000000
H     0.930000000    -6.515000000     1.801000000
O     3.563000000    -4.468000000     1.711000000
H     2.853000000    -5.015000000     1.377000000
H     3.133000000    -3.854000000     2.306000000
O     5.279000000    -5.156000000    -0.094000000
H     5.033000000    -4.745000000    -0.923000000
H     4.615000000    -4.859000000     0.527000000
O     5.430000000     0.165000000     2.481000000
H     5.641000000     0.772000000     3.190000000
H     5.254000000    -0.666000000     2.922000000
O    -4.137000000    -3.942000000     3.680000000
H    -3.877000000    -3.955000000     2.759000000
H    -4.503000000    -3.067000000     3.814000000
O     1.912000000     1.120000000    -1.955000000
H     1.428000000     0.720000000    -1.233000000
H     1.251000000     1.277000000    -2.629000000
O     1.453000000     3.552000000     3.438000000
H     0.539000000     3.454000000     3.706000000
H     1.443000000     3.402000000     2.493000000
O    -0.773000000     4.522000000    -2.344000000
H    -0.301000000     5.346000000    -2.222000000
H    -0.911000000     4.191000000    -1.457000000
O     2.309000000     0.347000000     4.215000000
H     1.998000000     0.994000000     3.582000000
H     1.573000000     0.224000000     4.814000000
O     1.975000000    -4.587000000    -4.037000000
H     1.078000000    -4.676000000    -4.358000000
H     2.199000000    -5.457000000    -3.705000000
O    -3.192000000     4.954000000    -3.522000000
H    -3.164000000     4.533000000    -4.381000000
H    -2.276000000     5.004000000    -3.250000000
O    -0.256000000    -2.843000000     4.317000000
H    -0.917000000    -2.151000000     4.329000000
H    -0.740000000    -3.640000000     4.533000000
