144
-2806.60520
O     0.491000000    -1.132000000    -6.467000000
H     0.822000000    -2.014000000    -6.296000000
H     0.205000000    -1.157000000    -7.380000000
O    -3.309000000     4.543000000     3.260000000
H    -2.606000000     5.120000000     2.962000000
H    -3.017000000     3.664000000     3.017000000
O    -5.161000000     3.701000000    -0.020000000
H    -5.966000000     3.243000000     0.222000000
H    -4.461000000     3.175000000     0.368000000
O    -2.645000000    -5.445000000    -4.737000000
H    -2.623000000    -4.513000000    -4.522000000
H    -1.763000000    -5.640000000    -5.052000000
O     0.427000000    -3.116000000     1.944000000
H     0.706000000    -2.791000000     1.088000000
H     0.496000000    -4.068000000     1.873000000
O    -6.921000000     3.132000000     4.104000000
H    -6.609000000     3.046000000     3.203000000
H    -7.828000000     3.425000000     4.016000000
O    -4.755000000     5.683000000     5.267000000
H    -5.215000000     6.258000000     4.656000000
H    -4.160000000     5.175000000     4.715000000
O    -1.641000000     6.623000000     2.018000000
H    -1.665000000     5.991000000     1.299000000
H    -2.045000000     7.412000000     1.657000000
O     1.952000000     4.627000000     5.839000000
H     1.316000000     5.324000000     5.994000000
H     1.506000000     4.023000000     5.246000000
O     3.555000000    -5.245000000    -2.548000000
H     3.606000000    -5.461000000    -3.480000000
H     4.058000000    -4.436000000    -2.462000000
O    -0.488000000     1.904000000    -3.040000000
H    -0.124000000     1.489000000    -2.258000000
H    -1.395000000     2.104000000    -2.805000000
O     0.010000000     5.506000000     3.931000000
H    -0.477000000     5.829000000     3.173000000
H     0.020000000     6.245000000     4.541000000
O    -4.598000000     0.124000000    -5.019000000
H    -4.356000000    -0.325000000    -4.209000000
H    -3.869000000     0.721000000    -5.188000000
O     3.275000000    -0.941000000    -4.906000000
H     2.617000000    -1.235000000    -4.276000000
H     3.118000000    -1.477000000    -5.684000000
O    -1.505000000     0.327000000    -5.040000000
H    -0.794000000    -0.145000000    -5.474000000
H    -1.077000000     0.807000000    -4.331000000
O     0.242000000    -5.803000000    -2.671000000
H     0.546000000    -6.453000000    -3.304000000
H    -0.454000000    -6.247000000    -2.187000000
O     4.352000000    -0.769000000     3.443000000
H     3.850000000    -1.528000000     3.741000000
H     3.852000000    -0.015000000     3.753000000
O    -7.003000000    -0.369000000    -0.247000000
H    -6.052000000    -0.338000000    -0.143000000
H    -7.216000000    -1.302000000    -0.236000000
O     1.595000000     3.366000000    -0.794000000
H     0.773000000     3.823000000    -0.618000000
H     1.848000000     3.658000000    -1.670000000
O    -5.386000000     6.277000000     2.607000000
H    -5.269000000     6.469000000     1.676000000
H    -4.891000000     5.470000000     2.748000000
O     1.354000000    -3.650000000    -4.255000000
H     0.830000000    -3.950000000    -3.512000000
H     1.277000000    -4.352000000    -4.901000000
O     6.121000000     1.293000000     2.552000000
H     6.910000000     0.877000000     2.899000000
H     5.421000000     0.664000000     2.729000000
O     2.896000000     1.383000000     4.546000000
H     2.982000000     1.493000000     5.493000000
H     2.051000000     1.780000000     4.335000000
O     0.143000000    -0.946000000     4.716000000
H    -0.665000000    -0.831000000     4.216000000
H     0.235000000    -0.134000000     5.214000000
O     1.071000000    -5.822000000     2.154000000
H     1.488000000    -5.679000000     1.304000000
H     0.393000000    -6.476000000     1.981000000
O    -5.859000000    -0.537000000     3.923000000
H    -5.700000000     0.054000000     3.187000000
H    -5.262000000    -0.234000000     4.607000000
O    -1.594000000     4.651000000     0.226000000
H    -1.708000000     4.866000000    -0.700000000
H    -2.138000000     3.875000000     0.360000000
O    -4.073000000    -1.552000000    -2.841000000
H    -4.898000000    -1.974000000    -3.081000000
H    -3.947000000    -1.779000000    -1.919000000
O     4.204000000     1.714000000    -0.572000000
H     4.023000000     1.618000000    -1.507000000
H     3.398000000     2.080000000    -0.208000000
O     5.976000000    -0.147000000    -4.796000000
H     5.250000000    -0.771000000    -4.782000000
H     6.666000000    -0.573000000    -4.287000000
O    -3.013000000     2.804000000    -1.953000000
H    -3.211000000     2.518000000    -1.061000000
H    -3.822000000     3.215000000    -2.258000000
O    -2.369000000     0.071000000     3.896000000
H    -3.047000000     0.379000000     4.498000000
H    -1.959000000     0.870000000     3.568000000
O    -1.286000000     3.348000000     6.335000000
H    -1.813000000     2.849000000     6.957000000
H    -0.867000000     2.684000000     5.787000000
O    -1.954000000    -2.748000000    -4.222000000
H    -1.336000000    -2.027000000    -4.336000000
H    -2.659000000    -2.378000000    -3.691000000
O    -7.256000000     2.010000000     1.254000000
H    -7.996000000     2.471000000     0.859000000
H    -7.295000000     1.130000000     0.879000000
O    -5.904000000     3.031000000    -3.008000000
H    -6.560000000     2.336000000    -3.062000000
H    -6.210000000     3.594000000    -2.296000000
O    -4.309000000    -0.330000000     0.911000000
H    -4.070000000     0.596000000     0.946000000
H    -3.619000000    -0.774000000     1.404000000
O    -2.121000000    -5.579000000    -0.890000000
H    -2.032000000    -5.179000000    -1.755000000
H    -2.876000000    -5.140000000    -0.499000000
O     4.485000000    -0.954000000     0.714000000
H     4.389000000    -0.093000000     0.307000000
H     4.276000000    -0.808000000     1.636000000
O     4.858000000    -3.195000000    -0.695000000
H     4.516000000    -3.921000000    -0.174000000
H     4.593000000    -2.410000000    -0.215000000
O     3.322000000     1.579000000    -5.693000000
H     3.516000000     0.716000000    -5.325000000
H     4.079000000     1.780000000    -6.243000000
O    -2.244000000    -2.119000000     2.377000000
H    -2.177000000    -1.392000000     2.996000000
H    -1.340000000    -2.404000000     2.245000000
O     0.425000000     2.961000000     3.882000000
H     0.296000000     3.896000000     4.045000000
H    -0.294000000     2.718000000     3.299000000
O     2.389000000    -2.595000000     4.003000000
H     1.611000000    -2.041000000     4.058000000
H     2.111000000    -3.347000000     3.479000000
O    -4.572000000     6.328000000    -0.186000000
H    -4.687000000     5.384000000    -0.084000000
H    -3.778000000     6.418000000    -0.712000000
O     1.769000000    -5.250000000    -0.565000000
H     2.605000000    -5.332000000    -1.024000000
H     1.109000000    -5.308000000    -1.257000000
O     5.076000000    -5.284000000     1.192000000
H     4.540000000    -5.564000000     1.934000000
H     5.936000000    -5.671000000     1.358000000
O     6.362000000    -2.511000000     1.978000000
H     6.344000000    -3.377000000     1.570000000
H     5.813000000    -1.968000000     1.412000000
