144
-2798.74580
O    -2.964000000     5.904000000    -2.919000000
H    -2.133000000     6.378000000    -2.936000000
H    -2.929000000     5.387000000    -2.114000000
O     1.977000000     5.828000000    -2.472000000
H     1.763000000     6.616000000    -1.972000000
H     1.359000000     5.833000000    -3.203000000
O     1.507000000    -2.265000000    -5.217000000
H     2.207000000    -2.110000000    -4.584000000
H     1.210000000    -1.390000000    -5.465000000
O    -6.027000000    -3.259000000     3.740000000
H    -6.080000000    -2.450000000     3.231000000
H    -5.215000000    -3.674000000     3.448000000
O     4.720000000     5.261000000    -2.473000000
H     5.087000000     6.117000000    -2.693000000
H     3.779000000     5.359000000    -2.619000000
O    -3.698000000    -4.367000000     2.886000000
H    -3.923000000    -5.196000000     2.464000000
H    -2.858000000    -4.121000000     2.498000000
O    -4.496000000    -0.661000000     6.562000000
H    -4.103000000    -1.260000000     7.197000000
H    -4.386000000    -1.100000000     5.718000000
O    -1.101000000    -3.654000000    -3.212000000
H    -0.698000000    -2.787000000    -3.255000000
H    -1.689000000    -3.609000000    -2.459000000
O    -1.650000000    -0.346000000    -3.539000000
H    -1.069000000     0.277000000    -3.102000000
H    -1.842000000     0.059000000    -4.385000000
O    -0.193000000    -5.599000000     4.353000000
H    -0.704000000    -4.826000000     4.595000000
H    -0.827000000    -6.316000000     4.362000000
O     5.239000000    -0.950000000    -3.140000000
H     4.485000000    -1.489000000    -2.906000000
H     5.841000000    -1.555000000    -3.574000000
O     0.182000000    -4.667000000    -5.560000000
H     0.893000000    -4.027000000    -5.576000000
H    -0.406000000    -4.355000000    -4.872000000
O    -4.223000000    -0.922000000    -2.234000000
H    -4.383000000    -1.005000000    -1.294000000
H    -3.273000000    -0.829000000    -2.308000000
O     0.069000000    -5.114000000     1.037000000
H     0.207000000    -5.305000000     1.965000000
H    -0.459000000    -4.316000000     1.033000000
O     1.249000000    -3.029000000     5.686000000
H     0.782000000    -2.219000000     5.890000000
H     1.780000000    -2.813000000     4.919000000
O     5.042000000     2.654000000    -0.882000000
H     5.253000000     3.424000000    -1.409000000
H     5.694000000     2.002000000    -1.138000000
O    -1.458000000    -7.836000000     0.129000000
H    -0.685000000    -7.372000000     0.453000000
H    -2.164000000    -7.562000000     0.714000000
O     0.319000000     5.887000000     0.148000000
H    -0.620000000     5.840000000    -0.035000000
H     0.689000000     5.131000000    -0.307000000
O     0.579000000    -6.749000000    -2.901000000
H     0.055000000    -5.991000000    -3.162000000
H     0.332000000    -6.908000000    -1.990000000
O     5.105000000     1.412000000    -4.600000000
H     5.780000000     1.298000000    -5.269000000
H     5.198000000     0.646000000    -4.034000000
O     0.556000000     6.802000000     2.914000000
H    -0.375000000     6.811000000     3.137000000
H     0.628000000     6.154000000     2.214000000
O     3.242000000    -2.618000000    -2.801000000
H     3.515000000    -3.426000000    -3.236000000
H     2.842000000    -2.911000000    -1.982000000
O     1.631000000     4.586000000    -6.500000000
H     2.501000000     4.623000000    -6.897000000
H     1.766000000     4.133000000    -5.668000000
O     4.389000000     4.724000000     0.523000000
H     4.332000000     5.355000000    -0.194000000
H     4.448000000     3.872000000     0.089000000
O     2.160000000    -1.256000000     3.014000000
H     1.468000000    -1.052000000     2.385000000
H     2.972000000    -1.043000000     2.554000000
O     3.463000000     1.190000000     1.100000000
H     2.685000000     0.943000000     0.599000000
H     4.031000000     1.622000000     0.462000000
O    -4.830000000     3.021000000    -2.130000000
H    -4.149000000     2.378000000    -1.933000000
H    -5.616000000     2.498000000    -2.285000000
O     5.306000000     1.169000000     3.184000000
H     5.067000000     1.115000000     4.109000000
H     4.475000000     1.302000000     2.729000000
O    -1.674000000     1.282000000    -5.649000000
H    -1.918000000     2.173000000    -5.395000000
H    -2.031000000     1.178000000    -6.531000000
O     1.208000000     0.464000000    -5.631000000
H     1.516000000     1.368000000    -5.698000000
H     0.257000000     0.528000000    -5.725000000
O    -2.606000000    -3.769000000    -0.778000000
H    -3.537000000    -3.551000000    -0.746000000
H    -2.267000000    -3.500000000     0.076000000
O    -3.413000000     2.623000000     4.103000000
H    -4.288000000     2.278000000     4.283000000
H    -2.821000000     1.910000000     4.341000000
O     2.130000000    -4.556000000    -0.687000000
H     2.858000000    -4.547000000    -0.066000000
H     1.370000000    -4.807000000    -0.161000000
O    -2.021000000    -3.244000000     5.232000000
H    -1.416000000    -2.722000000     5.759000000
H    -2.279000000    -2.662000000     4.517000000
O     2.819000000    -0.531000000     5.506000000
H     2.456000000    -0.798000000     4.662000000
H     3.058000000     0.388000000     5.385000000
O    -1.741000000     0.385000000     4.665000000
H    -1.321000000     0.031000000     5.449000000
H    -1.726000000    -0.338000000     4.038000000
O    -5.331000000    -2.942000000    -0.488000000
H    -5.726000000    -3.504000000     0.179000000
H    -6.069000000    -2.653000000    -1.024000000
O    -2.400000000     4.802000000    -0.011000000
H    -2.559000000     5.447000000     0.679000000
H    -2.981000000     4.073000000     0.205000000
O    -3.970000000    -7.223000000     1.320000000
H    -4.911000000    -7.303000000     1.162000000
H    -3.885000000    -7.253000000     2.273000000
O    -4.026000000    -0.483000000     0.782000000
H    -3.482000000    -0.890000000     1.456000000
H    -4.887000000    -0.394000000     1.191000000
O     0.035000000     2.809000000     5.451000000
H    -0.745000000     2.409000000     5.067000000
H     0.741000000     2.193000000     5.254000000
O    -0.697000000    -0.799000000     6.898000000
H    -0.090000000    -0.190000000     7.319000000
H    -1.396000000    -0.924000000     7.541000000
O     2.756000000     2.881000000    -4.591000000
H     2.352000000     2.248000000    -3.997000000
H     3.690000000     2.670000000    -4.566000000
O     3.270000000     4.187000000     3.128000000
H     3.526000000     4.483000000     2.254000000
H     3.111000000     4.994000000     3.617000000
O    -6.599000000    -0.864000000     2.267000000
H    -7.219000000    -0.431000000     2.854000000
H    -6.915000000    -0.655000000     1.388000000
O    -3.834000000    -4.623000000     7.057000000
H    -3.769000000    -3.878000000     7.654000000
H    -3.178000000    -4.446000000     6.382000000
O     6.886000000     0.642000000    -1.718000000
H     6.276000000     0.131000000    -2.249000000
H     7.688000000     0.676000000    -2.240000000
O    -3.622000000     2.396000000     0.627000000
H    -4.158000000     2.544000000     1.406000000
H    -3.366000000     1.475000000     0.685000000
