144
-2849.07461
O     3.275000000     4.438000000     1.188000000
H     3.516000000     5.055000000     1.879000000
H     2.663000000     4.925000000     0.635000000
O     1.438000000     5.965000000    -4.190000000
H     1.950000000     6.003000000    -4.997000000
H     0.906000000     6.761000000    -4.206000000
O    -4.616000000     2.900000000    -0.307000000
H    -4.766000000     3.224000000     0.582000000
H    -4.419000000     1.971000000    -0.192000000
O    -4.274000000    -1.619000000     1.430000000
H    -4.401000000    -2.420000000     0.920000000
H    -3.928000000    -1.922000000     2.269000000
O    -1.481000000    -4.235000000     3.461000000
H    -1.586000000    -5.175000000     3.313000000
H    -1.020000000    -3.919000000     2.684000000
O    -2.340000000    -0.025000000     5.316000000
H    -1.639000000     0.486000000     4.912000000
H    -2.202000000     0.082000000     6.258000000
O    -0.322000000     0.708000000    -4.274000000
H     0.012000000     1.604000000    -4.325000000
H    -1.218000000     0.767000000    -4.606000000
O    -6.368000000     0.414000000    -1.598000000
H    -6.952000000     0.048000000    -0.933000000
H    -5.536000000     0.543000000    -1.142000000
O     2.512000000    -8.176000000     1.542000000
H     1.841000000    -7.512000000     1.385000000
H     2.148000000    -8.724000000     2.237000000
O    -2.856000000     1.957000000    -5.533000000
H    -3.331000000     1.351000000    -6.101000000
H    -3.538000000     2.386000000    -5.015000000
O     3.638000000     6.360000000    -2.214000000
H     2.969000000     6.260000000    -2.891000000
H     4.319000000     5.731000000    -2.457000000
O     6.288000000     0.998000000     0.720000000
H     7.220000000     1.179000000     0.840000000
H     6.264000000     0.259000000     0.112000000
O     2.836000000    -3.910000000    -4.618000000
H     2.811000000    -4.176000000    -3.699000000
H     3.655000000    -3.422000000    -4.704000000
O    -1.956000000    -0.503000000    -2.076000000
H    -1.621000000    -0.179000000    -2.912000000
H    -1.212000000    -0.436000000    -1.478000000
O     2.494000000    -5.322000000     3.412000000
H     3.016000000    -4.680000000     2.930000000
H     1.944000000    -5.733000000     2.745000000
O     0.638000000    -1.991000000    -4.472000000
H     0.701000000    -1.051000000    -4.300000000
H     1.483000000    -2.221000000    -4.859000000
O     4.658000000     0.180000000    -1.990000000
H     5.277000000     0.324000000    -2.706000000
H     4.362000000     1.057000000    -1.748000000
O    -1.538000000    -8.304000000    -0.232000000
H    -0.643000000    -8.097000000    -0.504000000
H    -1.990000000    -7.461000000    -0.236000000
O     3.168000000    -0.075000000     2.352000000
H     2.916000000    -0.431000000     3.204000000
H     2.724000000     0.772000000     2.305000000
O     4.403000000    -6.398000000    -2.276000000
H     3.612000000    -5.869000000    -2.167000000
H     4.123000000    -7.291000000    -2.079000000
O     0.724000000    -3.296000000     5.609000000
H    -0.097000000    -3.366000000     6.096000000
H     0.556000000    -3.762000000     4.789000000
O     3.717000000     2.277000000    -0.737000000
H     3.942000000     3.063000000    -0.239000000
H     2.953000000     1.918000000    -0.285000000
O     0.716000000    -6.103000000     1.407000000
H    -0.092000000    -6.350000000     1.857000000
H     0.550000000    -5.217000000     1.085000000
O     4.809000000    -1.393000000     0.108000000
H     4.491000000    -0.900000000     0.864000000
H     4.561000000    -0.859000000    -0.647000000
O     5.266000000    -5.738000000     1.279000000
H     4.800000000    -4.903000000     1.228000000
H     4.574000000    -6.397000000     1.316000000
O     0.272000000     3.488000000    -4.299000000
H     0.474000000     4.423000000    -4.322000000
H    -0.661000000     3.450000000    -4.088000000
O     3.120000000     1.550000000    -4.715000000
H     3.860000000     2.090000000    -4.440000000
H     2.381000000     1.878000000    -4.203000000
O    -0.388000000    -4.325000000    -3.643000000
H    -0.185000000    -3.445000000    -3.961000000
H    -1.344000000    -4.348000000    -3.597000000
O     6.328000000    -4.235000000    -1.297000000
H     5.859000000    -5.062000000    -1.409000000
H     5.637000000    -3.578000000    -1.211000000
O    -3.763000000     5.472000000    -0.892000000
H    -3.985000000     4.541000000    -0.883000000
H    -2.833000000     5.498000000    -0.666000000
O     1.920000000    -4.852000000    -2.286000000
H     1.111000000    -4.754000000    -2.789000000
H     1.869000000    -4.172000000    -1.615000000
O     1.588000000    -1.040000000     4.274000000
H     0.816000000    -0.480000000     4.354000000
H     1.432000000    -1.754000000     4.892000000
O    -0.280000000     1.160000000     4.034000000
H     0.316000000     1.844000000     4.339000000
H    -0.254000000     1.228000000     3.079000000
O    -2.345000000     4.536000000    -4.132000000
H    -2.175000000     5.335000000    -3.632000000
H    -3.242000000     4.296000000    -3.901000000
O    -3.942000000     0.371000000    -0.355000000
H    -3.862000000    -0.339000000     0.282000000
H    -3.408000000     0.089000000    -1.097000000
O     2.362000000     2.546000000     2.996000000
H     2.036000000     2.872000000     3.835000000
H     2.491000000     3.333000000     2.467000000
O    -2.739000000    -3.558000000    -0.336000000
H    -2.713000000    -3.424000000    -1.283000000
H    -1.824000000    -3.495000000    -0.060000000
O    -7.033000000     1.273000000     1.582000000
H    -7.131000000     2.220000000     1.480000000
H    -6.148000000     1.159000000     1.927000000
O    -4.427000000     3.043000000    -3.336000000
H    -4.212000000     2.969000000    -2.406000000
H    -5.346000000     2.780000000    -3.391000000
O    -1.887000000    -6.915000000     2.564000000
H    -2.337000000    -7.300000000     3.315000000
H    -2.497000000    -7.029000000     1.835000000
O    -3.588000000    -6.114000000     0.180000000
H    -3.227000000    -5.337000000    -0.246000000
H    -4.215000000    -5.769000000     0.815000000
O    -3.144000000    -2.045000000     3.796000000
H    -2.738000000    -1.411000000     4.388000000
H    -2.494000000    -2.742000000     3.709000000
O     0.833000000     6.656000000     2.869000000
H     1.721000000     6.307000000     2.796000000
H     0.567000000     6.825000000     1.965000000
O    -4.229000000     0.822000000     3.176000000
H    -3.378000000     0.669000000     3.587000000
H    -4.414000000     0.012000000     2.700000000
O     1.975000000     6.288000000    -0.228000000
H     2.677000000     6.119000000    -0.856000000
H     1.807000000     7.227000000    -0.304000000
O     3.733000000    -3.432000000     1.595000000
H     2.878000000    -3.422000000     1.165000000
H     4.241000000    -2.765000000     1.133000000
O    -4.636000000     3.474000000     2.290000000
H    -4.126000000     3.986000000     2.918000000
H    -4.525000000     2.567000000     2.575000000
O    -0.972000000     5.950000000    -0.299000000
H    -0.037000000     5.746000000    -0.278000000
H    -1.043000000     6.795000000     0.145000000
