144
-2808.95871
O     5.455000000     4.028000000    -3.462000000
H     5.834000000     3.149000000    -3.443000000
H     6.208000000     4.614000000    -3.383000000
O    -1.159000000     1.389000000     5.933000000
H    -0.826000000     1.680000000     6.782000000
H    -0.476000000     0.810000000     5.594000000
O    -0.828000000     5.571000000    -3.569000000
H    -1.683000000     5.157000000    -3.456000000
H    -0.622000000     5.446000000    -4.495000000
O    -5.628000000     1.105000000     3.267000000
H    -5.001000000     1.348000000     2.586000000
H    -5.085000000     0.897000000     4.028000000
O     2.193000000    -4.784000000     1.342000000
H     2.393000000    -4.880000000     0.411000000
H     1.418000000    -4.224000000     1.364000000
O     4.535000000     6.210000000    -1.159000000
H     3.775000000     5.957000000    -0.635000000
H     4.346000000     7.107000000    -1.436000000
O    -4.282000000     2.376000000     0.859000000
H    -4.809000000     3.138000000     0.618000000
H    -3.506000000     2.744000000     1.282000000
O    -1.387000000    -1.499000000     5.021000000
H    -2.277000000    -1.194000000     5.201000000
H    -1.427000000    -1.843000000     4.129000000
O    -6.446000000    -2.446000000     2.473000000
H    -5.547000000    -2.149000000     2.328000000
H    -6.401000000    -2.960000000     3.279000000
O     3.503000000    -2.666000000    -2.933000000
H     3.454000000    -3.168000000    -3.747000000
H     3.766000000    -3.306000000    -2.273000000
O     4.471000000    -0.178000000    -3.992000000
H     3.932000000    -0.891000000    -3.648000000
H     4.771000000    -0.494000000    -4.844000000
O    -3.487000000     0.236000000     5.166000000
H    -3.930000000    -0.132000000     5.931000000
H    -2.789000000     0.779000000     5.533000000
O     4.163000000    -4.661000000    -0.886000000
H     4.737000000    -4.169000000    -0.299000000
H     4.747000000    -5.270000000    -1.339000000
O     2.682000000     4.943000000    -3.253000000
H     3.594000000     4.703000000    -3.094000000
H     2.722000000     5.579000000    -3.966000000
O     1.926000000     0.577000000    -4.610000000
H     1.979000000     1.482000000    -4.917000000
H     2.532000000     0.539000000    -3.870000000
O    -3.370000000     4.734000000    -3.767000000
H    -3.633000000     5.339000000    -3.073000000
H    -3.704000000     3.883000000    -3.481000000
O    -3.536000000     0.493000000    -1.668000000
H    -2.663000000     0.607000000    -1.294000000
H    -4.105000000     0.354000000    -0.912000000
O     4.710000000     2.985000000    -0.386000000
H     4.981000000     2.114000000    -0.674000000
H     4.631000000     3.491000000    -1.195000000
O    -2.981000000    -3.081000000    -1.641000000
H    -2.959000000    -2.124000000    -1.646000000
H    -3.319000000    -3.317000000    -2.506000000
O    -0.415000000    -4.901000000     4.129000000
H    -0.691000000    -4.838000000     5.044000000
H    -1.037000000    -4.351000000     3.653000000
O    -1.990000000    -7.720000000     3.893000000
H    -1.492000000    -7.981000000     4.668000000
H    -1.792000000    -6.791000000     3.783000000
O    -0.788000000     6.496000000    -0.676000000
H    -1.179000000     5.892000000    -1.308000000
H    -0.017000000     6.845000000    -1.123000000
O     1.958000000     0.578000000     3.115000000
H     1.520000000    -0.093000000     3.638000000
H     1.538000000     0.525000000     2.257000000
O     1.110000000     7.311000000    -2.655000000
H     0.614000000     6.581000000    -3.026000000
H     2.008000000     6.985000000    -2.597000000
O     3.714000000    -0.672000000     1.008000000
H     4.385000000    -0.296000000     0.439000000
H     3.111000000     0.052000000     1.178000000
O    -0.102000000    -4.129000000    -4.137000000
H     0.080000000    -4.009000000    -3.204000000
H    -0.008000000    -3.253000000    -4.513000000
O    -1.186000000    -3.430000000     7.004000000
H    -1.208000000    -2.713000000     6.370000000
H    -2.107000000    -3.638000000     7.162000000
O     1.327000000     3.456000000    -5.139000000
H     0.612000000     4.019000000    -5.436000000
H     1.579000000     3.816000000    -4.289000000
O    -1.072000000     4.802000000     4.625000000
H    -0.381000000     5.341000000     4.241000000
H    -1.317000000     4.194000000     3.927000000
O    -3.975000000    -1.381000000     2.837000000
H    -3.916000000    -0.740000000     3.546000000
H    -3.100000000    -1.767000000     2.790000000
O     2.965000000    -7.299000000     0.113000000
H     3.210000000    -6.419000000    -0.172000000
H     3.797000000    -7.764000000     0.199000000
O     4.170000000    -3.041000000     2.228000000
H     3.527000000    -3.707000000     1.984000000
H     3.806000000    -2.222000000     1.891000000
O     1.293000000    -7.345000000     4.140000000
H     1.085000000    -6.412000000     4.186000000
H     1.111000000    -7.675000000     5.020000000
O    -0.279000000    -4.248000000    -1.573000000
H     0.114000000    -4.055000000    -0.722000000
H    -1.192000000    -3.974000000    -1.483000000
O    -5.134000000    -1.386000000    -0.197000000
H    -5.273000000    -2.328000000    -0.098000000
H    -4.654000000    -1.131000000     0.591000000
O    -0.427000000    -8.065000000    -1.646000000
H    -0.222000000    -8.848000000    -1.134000000
H    -0.219000000    -7.336000000    -1.061000000
O    -1.558000000    -6.161000000     0.866000000
H    -0.878000000    -6.803000000     1.067000000
H    -1.130000000    -5.313000000     0.988000000
O     1.626000000     3.343000000     3.277000000
H     1.839000000     2.420000000     3.138000000
H     1.684000000     3.462000000     4.225000000
O     0.735000000    -1.874000000    -5.271000000
H     1.172000000    -1.134000000    -4.850000000
H     1.304000000    -2.103000000    -6.006000000
O     1.492000000    -1.721000000     4.516000000
H     0.604000000    -2.021000000     4.710000000
H     2.004000000    -1.975000000     5.283000000
O     2.145000000     5.793000000     0.021000000
H     1.912000000     4.942000000    -0.352000000
H     1.306000000     6.185000000     0.265000000
O    -3.109000000    -4.847000000     2.820000000
H    -2.766000000    -3.998000000     2.541000000
H    -3.021000000    -5.405000000     2.048000000
O    -5.458000000    -4.967000000     4.231000000
H    -4.610000000    -4.923000000     3.790000000
H    -5.550000000    -5.886000000     4.481000000
O    -3.793000000    -7.010000000    -0.468000000
H    -2.851000000    -6.854000000    -0.398000000
H    -4.088000000    -7.105000000     0.437000000
O     0.241000000     5.427000000     2.160000000
H     0.614000000     4.651000000     2.579000000
H     0.865000000     6.126000000     2.354000000
O     0.688000000    -7.834000000     1.572000000
H     1.482000000    -7.457000000     1.194000000
H     0.732000000    -7.604000000     2.500000000
O    -2.496000000     3.941000000     1.988000000
H    -1.570000000     4.179000000     2.017000000
H    -2.949000000     4.698000000     2.362000000
O     5.101000000     0.264000000    -1.277000000
H     4.831000000     0.173000000    -2.190000000
H     5.744000000    -0.434000000    -1.147000000
