144
-2824.92420
O    -2.863000000     4.923000000     1.721000000
H    -3.788000000     4.689000000     1.648000000
H    -2.603000000     4.607000000     2.586000000
O    -1.834000000     6.463000000    -4.323000000
H    -1.491000000     6.266000000    -3.451000000
H    -1.067000000     6.434000000    -4.894000000
O     1.285000000    -4.498000000     0.466000000
H     0.974000000    -5.026000000     1.202000000
H     1.664000000    -3.719000000     0.873000000
O     6.405000000    -1.071000000     2.843000000
H     6.326000000    -0.326000000     3.439000000
H     5.897000000    -0.817000000     2.073000000
O     0.479000000    -3.423000000     6.488000000
H    -0.393000000    -3.751000000     6.269000000
H     0.329000000    -2.796000000     7.195000000
O     5.386000000    -3.532000000    -0.567000000
H     5.949000000    -4.285000000    -0.745000000
H     5.242000000    -3.560000000     0.379000000
O    -5.559000000     3.714000000    -1.203000000
H    -5.523000000     2.762000000    -1.298000000
H    -4.832000000     4.036000000    -1.736000000
O     2.343000000     0.035000000     4.960000000
H     2.811000000     0.717000000     4.478000000
H     2.099000000    -0.605000000     4.291000000
O    -5.866000000     2.498000000    -3.784000000
H    -6.554000000     1.999000000    -3.344000000
H    -5.176000000     1.857000000    -3.954000000
O     3.858000000    -5.745000000    -3.886000000
H     4.390000000    -6.200000000    -3.233000000
H     3.439000000    -5.034000000    -3.400000000
O    -3.469000000     1.135000000    -4.705000000
H    -3.731000000     1.308000000    -5.610000000
H    -2.660000000     0.629000000    -4.782000000
O     0.910000000    -3.605000000    -3.916000000
H     1.671000000    -3.580000000    -3.336000000
H     0.563000000    -4.492000000    -3.818000000
O    -0.499000000     6.837000000    -1.832000000
H    -0.060000000     7.680000000    -1.719000000
H    -1.346000000     6.948000000    -1.400000000
O     3.053000000    -4.016000000    -2.023000000
H     2.512000000    -4.131000000    -1.242000000
H     3.831000000    -3.556000000    -1.710000000
O     2.230000000     2.502000000    -2.209000000
H     3.014000000     2.931000000    -2.552000000
H     1.565000000     3.190000000    -2.202000000
O     1.600000000    -3.291000000    -6.671000000
H     1.434000000    -3.294000000    -5.728000000
H     2.461000000    -3.698000000    -6.763000000
O    -3.333000000     3.794000000    -2.844000000
H    -2.987000000     4.425000000    -3.475000000
H    -2.985000000     2.950000000    -3.133000000
O     2.971000000     5.724000000    -2.921000000
H     2.270000000     5.092000000    -3.078000000
H     3.657000000     5.219000000    -2.484000000
O     4.926000000    -5.044000000     5.018000000
H     5.521000000    -4.591000000     5.615000000
H     4.083000000    -4.607000000     5.142000000
O     2.434000000    -3.845000000     4.577000000
H     2.085000000    -3.602000000     3.720000000
H     1.658000000    -4.007000000     5.115000000
O     2.175000000    -0.761000000    -5.221000000
H     2.233000000    -1.398000000    -5.933000000
H     2.944000000    -0.204000000    -5.334000000
O     3.439000000    -1.945000000     6.209000000
H     2.931000000    -2.673000000     5.850000000
H     2.953000000    -1.163000000     5.950000000
O     2.014000000     2.194000000     0.501000000
H     1.183000000     1.730000000     0.605000000
H     2.080000000     2.360000000    -0.440000000
O     0.128000000     5.725000000     0.884000000
H     0.607000000     5.924000000     0.079000000
H     0.809000000     5.503000000     1.519000000
O    -3.245000000    -3.994000000    -2.988000000
H    -2.702000000    -3.305000000    -3.371000000
H    -2.714000000    -4.348000000    -2.274000000
O     0.550000000     4.394000000    -2.923000000
H     0.196000000     5.278000000    -2.825000000
H    -0.221000000     3.828000000    -2.953000000
O    -1.473000000    -2.163000000    -3.811000000
H    -0.592000000    -2.514000000    -3.685000000
H    -1.338000000    -1.339000000    -4.279000000
O    -0.826000000    -0.684000000     5.149000000
H    -0.228000000    -0.708000000     5.896000000
H    -0.298000000    -0.987000000     4.410000000
O     4.265000000    -3.623000000     1.959000000
H     4.715000000    -3.288000000     2.734000000
H     3.417000000    -3.178000000     1.963000000
O    -3.114000000    -1.418000000    -0.654000000
H    -3.086000000    -1.860000000    -1.502000000
H    -2.209000000    -1.151000000    -0.493000000
O    -1.776000000     4.646000000     4.329000000
H    -1.478000000     3.737000000     4.309000000
H    -2.075000000     4.781000000     5.228000000
O    -4.716000000     0.819000000    -1.265000000
H    -5.546000000     0.477000000    -1.598000000
H    -4.146000000     0.052000000    -1.210000000
O    -1.554000000    -4.922000000    -0.865000000
H    -0.638000000    -4.665000000    -0.761000000
H    -1.941000000    -4.785000000     0.000000000
O    -1.593000000    -3.683000000     2.641000000
H    -1.154000000    -4.351000000     3.167000000
H    -1.148000000    -2.867000000     2.869000000
O    -5.554000000     4.043000000     1.567000000
H    -5.294000000     3.893000000     0.658000000
H    -6.431000000     3.663000000     1.631000000
O     0.861000000     0.098000000     7.434000000
H     1.572000000     0.391000000     6.864000000
H     1.061000000     0.486000000     8.286000000
O     4.989000000    -6.212000000     2.609000000
H     4.677000000    -5.424000000     2.165000000
H     4.733000000    -6.089000000     3.523000000
O    -2.894000000     6.108000000    -0.721000000
H    -2.924000000     5.246000000    -1.136000000
H    -2.512000000     5.945000000     0.141000000
O    -0.554000000     0.196000000    -5.194000000
H    -0.697000000     0.329000000    -6.131000000
H     0.399000000     0.174000000    -5.098000000
O     5.571000000    -0.618000000    -0.266000000
H     5.695000000    -1.549000000    -0.454000000
H     4.952000000    -0.320000000    -0.932000000
O    -3.405000000    -2.151000000     5.419000000
H    -3.277000000    -2.560000000     6.275000000
H    -2.562000000    -1.744000000     5.220000000
O     3.861000000    -0.045000000    -2.260000000
H     3.322000000     0.733000000    -2.117000000
H     3.234000000    -0.732000000    -2.489000000
O    -3.904000000    -2.213000000     1.850000000
H    -3.515000000    -1.840000000     1.059000000
H    -3.162000000    -2.575000000     2.334000000
O    -3.333000000     1.330000000     2.218000000
H    -4.255000000     1.086000000     2.290000000
H    -3.075000000     1.037000000     1.344000000
O    -0.180000000    -5.492000000     4.473000000
H     0.271000000    -6.080000000     3.868000000
H     0.085000000    -5.794000000     5.342000000
O    -1.713000000     1.854000000     4.487000000
H    -1.343000000     1.022000000     4.781000000
H    -2.356000000     1.608000000     3.822000000
O     3.773000000     2.005000000     2.590000000
H     3.532000000     2.634000000     3.270000000
H     3.032000000     2.013000000     1.984000000
O    -0.778000000     3.854000000    -5.966000000
H    -0.478000000     4.463000000    -6.640000000
H    -1.399000000     3.283000000    -6.419000000
