144
-2826.58787
O    -3.829000000     2.451000000    -3.705000000
H    -3.174000000     2.417000000    -3.008000000
H    -4.668000000     2.384000000    -3.250000000
O    -5.421000000     1.244000000     2.503000000
H    -4.498000000     1.181000000     2.751000000
H    -5.895000000     0.882000000     3.252000000
O    -0.047000000     3.710000000    -0.042000000
H    -0.450000000     2.906000000    -0.368000000
H     0.446000000     3.434000000     0.731000000
O     0.080000000     3.164000000    -4.718000000
H     0.952000000     3.094000000    -4.328000000
H    -0.318000000     3.917000000    -4.281000000
O    -4.991000000     5.155000000    -4.091000000
H    -4.628000000     5.694000000    -3.388000000
H    -4.726000000     4.262000000    -3.868000000
O     3.236000000    -6.142000000     4.925000000
H     3.335000000    -6.503000000     4.044000000
H     2.855000000    -5.275000000     4.788000000
O    -3.848000000    -3.623000000     1.576000000
H    -2.907000000    -3.637000000     1.398000000
H    -4.236000000    -3.256000000     0.782000000
O     5.023000000    -2.523000000     3.093000000
H     4.321000000    -2.131000000     2.573000000
H     5.712000000    -1.859000000     3.105000000
O    -2.331000000     3.484000000    -5.791000000
H    -2.954000000     3.183000000    -5.130000000
H    -1.472000000     3.291000000    -5.416000000
O     0.436000000     0.320000000     4.091000000
H     0.523000000     0.656000000     4.983000000
H     1.317000000     0.023000000     3.861000000
O     7.790000000    -2.311000000     0.472000000
H     6.877000000    -2.556000000     0.325000000
H     8.294000000    -3.055000000     0.141000000
O    -5.316000000     1.808000000    -6.224000000
H    -4.719000000     2.040000000    -6.935000000
H    -4.749000000     1.700000000    -5.460000000
O     3.016000000    -2.271000000    -2.632000000
H     3.965000000    -2.327000000    -2.739000000
H     2.759000000    -1.519000000    -3.166000000
O    -6.390000000    -0.209000000     0.327000000
H    -7.114000000    -0.645000000     0.777000000
H    -6.124000000     0.490000000     0.924000000
O     5.967000000    -5.350000000     3.032000000
H     5.713000000    -4.434000000     2.922000000
H     6.428000000    -5.371000000     3.871000000
O     2.895000000    -0.027000000    -4.551000000
H     3.726000000    -0.497000000    -4.616000000
H     2.491000000    -0.135000000    -5.412000000
O     3.841000000     3.684000000     1.220000000
H     3.334000000     3.457000000     0.441000000
H     4.742000000     3.452000000     0.996000000
O     3.779000000    -5.225000000     0.018000000
H     3.373000000    -4.963000000     0.845000000
H     3.059000000    -5.588000000    -0.498000000
O     2.514000000     3.321000000    -1.209000000
H     2.233000000     3.301000000    -2.124000000
H     1.805000000     3.772000000    -0.750000000
O     2.498000000     2.731000000    -3.774000000
H     2.891000000     3.347000000    -4.392000000
H     2.793000000     1.871000000    -4.072000000
O    -4.315000000    -0.658000000    -3.988000000
H    -3.660000000    -1.114000000    -3.461000000
H    -4.010000000    -0.759000000    -4.890000000
O     1.709000000     0.539000000     6.930000000
H     2.184000000    -0.045000000     6.339000000
H     1.393000000    -0.033000000     7.630000000
O    -3.326000000     0.666000000     4.725000000
H    -4.066000000     0.421000000     5.280000000
H    -2.583000000     0.720000000     5.325000000
O    -5.471000000     2.636000000    -1.408000000
H    -5.481000000     2.870000000    -0.480000000
H    -6.084000000     1.904000000    -1.477000000
O    -1.958000000    -2.775000000    -3.668000000
H    -1.126000000    -2.526000000    -4.071000000
H    -2.236000000    -3.551000000    -4.154000000
O     4.841000000    -0.013000000     5.171000000
H     4.590000000     0.795000000     4.723000000
H     4.071000000    -0.577000000     5.097000000
O     5.107000000    -2.789000000    -0.157000000
H     4.489000000    -3.519000000    -0.176000000
H     4.668000000    -2.117000000     0.364000000
O     6.371000000     3.035000000     0.622000000
H     6.251000000     2.136000000     0.927000000
H     7.039000000     2.968000000    -0.061000000
O     2.436000000    -1.670000000     5.413000000
H     2.403000000    -1.947000000     4.497000000
H     2.146000000    -2.438000000     5.906000000
O     1.019000000    -3.010000000    -0.963000000
H     0.690000000    -2.156000000    -0.683000000
H     1.611000000    -2.813000000    -1.689000000
O     0.766000000     2.799000000     2.402000000
H     0.286000000     2.012000000     2.661000000
H     1.402000000     2.933000000     3.104000000
O    -5.162000000    -2.604000000    -0.614000000
H    -5.543000000    -1.801000000    -0.256000000
H    -5.712000000    -2.812000000    -1.369000000
O    -1.704000000    -4.255000000    -1.371000000
H    -1.822000000    -3.599000000    -2.057000000
H    -0.771000000    -4.218000000    -1.161000000
O     0.172000000    -4.442000000     3.926000000
H    -0.262000000    -5.283000000     4.071000000
H     0.520000000    -4.504000000     3.036000000
O     4.226000000     1.953000000     3.309000000
H     3.596000000     2.617000000     3.029000000
H     4.720000000     1.741000000     2.517000000
O    -2.716000000     4.489000000    -0.095000000
H    -2.923000000     4.009000000     0.707000000
H    -1.786000000     4.319000000    -0.242000000
O     6.736000000    -4.139000000    -1.748000000
H     6.184000000    -3.518000000    -1.273000000
H     6.734000000    -4.927000000    -1.204000000
O    -1.005000000     5.494000000    -3.867000000
H    -1.372000000     5.712000000    -4.723000000
H    -1.595000000     5.912000000    -3.240000000
O    -7.084000000    -0.529000000    -4.292000000
H    -6.130000000    -0.474000000    -4.232000000
H    -7.257000000    -0.675000000    -5.222000000
O    -0.094000000     0.386000000    -6.137000000
H     0.267000000     0.976000000    -5.476000000
H     0.056000000    -0.491000000    -5.783000000
O     7.208000000    -0.707000000     2.540000000
H     6.683000000    -0.150000000     1.965000000
H     7.731000000    -1.243000000     1.943000000
O     2.875000000    -4.218000000     2.466000000
H     3.731000000    -4.027000000     2.848000000
H     2.436000000    -3.369000000     2.424000000
O     5.123000000     1.736000000    -1.949000000
H     4.341000000     2.274000000    -1.830000000
H     5.247000000     1.699000000    -2.898000000
O    -4.968000000    -1.767000000     3.276000000
H    -4.646000000    -2.423000000     2.657000000
H    -4.319000000    -1.764000000     3.980000000
O    -2.284000000     2.641000000     2.405000000
H    -1.991000000     1.735000000     2.498000000
H    -2.735000000     2.833000000     3.227000000
O    -1.460000000    -2.412000000     4.739000000
H    -1.107000000    -1.684000000     4.227000000
H    -0.804000000    -3.104000000     4.655000000
O    -3.045000000     6.218000000    -2.076000000
H    -3.101000000     5.595000000    -1.352000000
H    -3.582000000     6.959000000    -1.797000000
O     5.247000000     0.559000000     0.846000000
H     4.535000000    -0.047000000     1.050000000
H     5.245000000     0.618000000    -0.109000000
