144
-2780.80219
O    -6.065000000     2.982000000    -3.346000000
H    -5.588000000     2.488000000    -2.679000000
H    -5.782000000     3.888000000    -3.222000000
O    -2.129000000     3.946000000     1.980000000
H    -1.858000000     3.125000000     1.567000000
H    -2.122000000     3.755000000     2.918000000
O    -1.493000000     2.767000000    -5.103000000
H    -1.608000000     3.413000000    -5.801000000
H    -2.310000000     2.269000000    -5.101000000
O    -7.470000000     1.907000000    -0.237000000
H    -7.715000000     2.712000000     0.219000000
H    -6.513000000     1.907000000    -0.224000000
O     0.094000000    -5.079000000     2.083000000
H     0.911000000    -4.611000000     2.258000000
H     0.373000000    -5.947000000     1.793000000
O     1.663000000    -6.437000000     4.719000000
H     0.717000000    -6.512000000     4.594000000
H     1.840000000    -5.499000000     4.648000000
O    -4.676000000    -0.379000000     0.183000000
H    -4.176000000    -1.193000000     0.118000000
H    -5.587000000    -0.663000000     0.258000000
O     4.651000000    -1.681000000     3.902000000
H     3.863000000    -1.490000000     3.393000000
H     5.303000000    -1.933000000     3.249000000
O    -3.961000000     1.646000000    -5.063000000
H    -4.586000000     2.289000000    -4.729000000
H    -3.912000000     0.981000000    -4.377000000
O    -2.179000000    -1.345000000     4.338000000
H    -2.220000000    -1.208000000     5.285000000
H    -1.268000000    -1.163000000     4.109000000
O     1.615000000    -3.651000000    -2.757000000
H     2.492000000    -3.452000000    -3.086000000
H     1.627000000    -4.595000000    -2.599000000
O     0.952000000     5.448000000    -1.687000000
H     1.761000000     5.394000000    -2.195000000
H     0.274000000     5.639000000    -2.335000000
O     5.010000000     0.559000000    -4.139000000
H     4.462000000    -0.200000000    -4.339000000
H     5.857000000     0.184000000    -3.896000000
O     0.123000000    -1.346000000    -4.723000000
H     0.221000000    -1.883000000    -3.936000000
H     0.219000000    -1.963000000    -5.448000000
O    -2.615000000     5.788000000     0.072000000
H    -2.329000000     5.384000000     0.891000000
H    -1.809000000     6.113000000    -0.330000000
O    -4.515000000     1.142000000    -2.334000000
H    -4.701000000     0.378000000    -1.788000000
H    -3.705000000     1.504000000    -1.974000000
O     2.620000000    -4.057000000     3.654000000
H     2.381000000    -3.134000000     3.564000000
H     2.698000000    -4.373000000     2.754000000
O    -2.168000000    -1.125000000     6.916000000
H    -2.675000000    -1.773000000     7.405000000
H    -1.477000000    -0.855000000     7.520000000
O     2.047000000     0.472000000    -5.431000000
H     2.596000000    -0.222000000    -5.064000000
H     1.150000000     0.183000000    -5.260000000
O     4.852000000    -4.391000000     5.451000000
H     4.818000000    -3.461000000     5.225000000
H     4.452000000    -4.834000000     4.702000000
O     1.398000000     2.778000000     2.893000000
H     1.433000000     2.428000000     2.003000000
H     1.301000000     2.005000000     3.450000000
O     3.192000000    -5.612000000     1.529000000
H     3.116000000    -6.079000000     0.697000000
H     3.604000000    -6.242000000     2.121000000
O     1.805000000     2.787000000    -0.015000000
H     2.119000000     2.354000000    -0.809000000
H     1.380000000     3.585000000    -0.330000000
O     2.524000000     2.342000000    -3.124000000
H     2.324000000     3.188000000    -3.525000000
H     2.332000000     1.701000000    -3.809000000
O    -2.841000000    -2.491000000    -4.587000000
H    -3.779000000    -2.325000000    -4.680000000
H    -2.426000000    -1.854000000    -5.168000000
O     1.105000000     0.278000000     7.720000000
H     2.028000000     0.179000000     7.489000000
H     0.779000000    -0.619000000     7.797000000
O    -4.576000000     0.143000000     4.364000000
H    -5.342000000    -0.245000000     4.787000000
H    -3.905000000    -0.538000000     4.413000000
O     3.508000000    -3.110000000     0.360000000
H     3.949000000    -3.871000000     0.737000000
H     3.042000000    -2.714000000     1.096000000
O     0.757000000     4.729000000    -6.136000000
H     1.542000000     4.965000000    -5.641000000
H     0.546000000     3.843000000    -5.842000000
O     4.044000000    -0.104000000     5.989000000
H     4.347000000    -0.604000000     5.231000000
H     3.858000000    -0.767000000     6.654000000
O    -0.162000000    -3.040000000    -0.852000000
H     0.492000000    -3.475000000    -1.399000000
H     0.231000000    -2.195000000    -0.635000000
O    -2.678000000    -2.250000000    -1.768000000
H    -2.649000000    -2.076000000    -2.709000000
H    -1.771000000    -2.149000000    -1.479000000
O    -2.214000000    -5.049000000     0.219000000
H    -2.506000000    -4.148000000     0.084000000
H    -1.383000000    -4.965000000     0.686000000
O    -1.463000000    -5.032000000     4.148000000
H    -1.023000000    -4.989000000     3.299000000
H    -0.932000000    -4.479000000     4.721000000
O     0.966000000     0.798000000     4.938000000
H     1.003000000     0.372000000     5.794000000
H     0.824000000     0.081000000     4.320000000
O    -4.533000000     3.279000000     0.269000000
H    -4.139000000     2.685000000     0.907000000
H    -3.917000000     4.010000000     0.210000000
O     5.421000000    -3.674000000    -1.575000000
H     4.705000000    -3.333000000    -1.039000000
H     6.108000000    -3.894000000    -0.946000000
O    -1.678000000     6.299000000    -3.176000000
H    -1.408000000     6.402000000    -4.089000000
H    -2.506000000     5.821000000    -3.224000000
O     2.042000000     2.920000000     6.457000000
H     1.141000000     3.242000000     6.499000000
H     1.963000000     2.032000000     6.108000000
O    -1.550000000     0.013000000    -6.467000000
H    -0.976000000     0.739000000    -6.712000000
H    -1.165000000    -0.336000000    -5.664000000
O     6.695000000     0.571000000     1.182000000
H     5.754000000     0.660000000     1.030000000
H     7.001000000     0.012000000     0.468000000
O     0.070000000    -3.305000000     5.613000000
H     0.406000000    -2.930000000     6.427000000
H     0.041000000    -2.567000000     5.004000000
O     4.643000000     2.204000000    -1.490000000
H     3.953000000     2.152000000    -2.151000000
H     5.458000000     2.124000000    -1.987000000
O    -3.633000000     1.439000000     2.219000000
H    -3.848000000     1.079000000     3.079000000
H    -3.995000000     0.806000000     1.598000000
O    -3.414000000    -3.578000000     3.271000000
H    -3.054000000    -2.734000000     3.543000000
H    -2.833000000    -4.226000000     3.669000000
O     3.585000000    -1.613000000    -4.891000000
H     3.684000000    -1.508000000    -5.837000000
H     3.907000000    -2.497000000    -4.713000000
O    -4.619000000     5.197000000    -2.841000000
H    -4.789000000     4.691000000    -2.047000000
H    -5.224000000     5.937000000    -2.787000000
O     3.611000000     1.250000000     1.705000000
H     3.119000000     0.430000000     1.744000000
H     3.174000000     1.759000000     1.022000000
