144
-2808.92581
O    -5.321000000     1.880000000    -2.384000000
H    -4.598000000     2.422000000    -2.070000000
H    -6.027000000     2.035000000    -1.757000000
O     4.409000000     1.009000000     1.507000000
H     5.187000000     0.618000000     1.906000000
H     4.448000000     0.739000000     0.590000000
O    -3.334000000     3.431000000    -0.814000000
H    -3.304000000     3.122000000     0.091000000
H    -2.433000000     3.343000000    -1.127000000
O     1.096000000     0.325000000     8.205000000
H     0.461000000     1.026000000     8.056000000
H     0.912000000    -0.315000000     7.518000000
O    -4.949000000    -3.590000000     6.013000000
H    -5.205000000    -3.852000000     6.897000000
H    -4.258000000    -4.207000000     5.771000000
O     1.404000000    -2.830000000    -3.655000000
H     1.313000000    -2.896000000    -2.704000000
H     2.330000000    -3.008000000    -3.820000000
O    -5.536000000    -5.710000000     1.678000000
H    -5.058000000    -6.535000000     1.604000000
H    -4.854000000    -5.040000000     1.718000000
O     0.963000000    -1.108000000     5.592000000
H     0.722000000    -1.532000000     4.768000000
H     1.431000000    -0.317000000     5.326000000
O    -4.645000000    -1.063000000    -1.996000000
H    -5.340000000    -1.388000000    -1.423000000
H    -4.794000000    -0.119000000    -2.040000000
O     4.924000000    -1.647000000    -3.752000000
H     4.404000000    -2.450000000    -3.738000000
H     4.278000000    -0.945000000    -3.835000000
O    -5.916000000    -2.360000000    -0.013000000
H    -5.078000000    -2.787000000     0.164000000
H    -6.537000000    -3.082000000    -0.108000000
O     1.653000000     3.372000000    -5.773000000
H     1.802000000     4.297000000    -5.969000000
H     2.220000000     2.904000000    -6.386000000
O     5.395000000    -2.551000000     2.494000000
H     5.005000000    -2.657000000     3.361000000
H     5.865000000    -1.718000000     2.543000000
O    -0.455000000     1.670000000    -5.490000000
H     0.351000000     2.185000000    -5.488000000
H    -0.160000000     0.764000000    -5.581000000
O     3.845000000    -3.835000000     0.558000000
H     3.146000000    -3.896000000     1.209000000
H     4.453000000    -3.190000000     0.919000000
O     1.902000000    -2.520000000    -1.074000000
H     1.744000000    -1.698000000    -0.609000000
H     2.499000000    -3.006000000    -0.505000000
O     3.512000000    -0.497000000     3.679000000
H     4.020000000    -0.048000000     3.003000000
H     2.986000000     0.194000000     4.081000000
O    -2.661000000     2.881000000    -7.220000000
H    -3.381000000     2.254000000    -7.290000000
H    -2.062000000     2.488000000    -6.585000000
O    -4.227000000    -4.327000000    -1.959000000
H    -4.535000000    -3.808000000    -2.702000000
H    -3.339000000    -4.008000000    -1.796000000
O     3.303000000     7.270000000    -1.780000000
H     2.727000000     6.513000000    -1.668000000
H     2.719000000     7.978000000    -2.050000000
O    -6.509000000     0.093000000     0.897000000
H    -6.090000000    -0.696000000     0.554000000
H    -6.739000000    -0.130000000     1.798000000
O    -1.212000000    -4.775000000    -1.359000000
H    -1.371000000    -5.343000000    -2.113000000
H    -0.758000000    -5.334000000    -0.729000000
O    -0.746000000     5.078000000    -1.692000000
H     0.161000000     5.348000000    -1.548000000
H    -0.699000000     4.464000000    -2.425000000
O    -0.748000000     4.087000000    -4.110000000
H    -0.666000000     3.235000000    -4.537000000
H    -0.281000000     4.691000000    -4.688000000
O     1.628000000     6.732000000     1.352000000
H     1.579000000     5.862000000     0.955000000
H     0.838000000     6.794000000     1.889000000
O    -0.868000000    -3.868000000     4.624000000
H    -1.733000000    -3.569000000     4.904000000
H    -0.557000000    -3.182000000     4.033000000
O     1.622000000    -3.676000000     2.012000000
H     0.972000000    -3.042000000     2.315000000
H     2.064000000    -3.966000000     2.809000000
O     2.175000000     4.779000000    -0.794000000
H     2.699000000     4.479000000    -1.537000000
H     2.503000000     4.274000000    -0.050000000
O    -1.782000000    -5.604000000     2.326000000
H    -1.037000000    -5.747000000     1.742000000
H    -1.690000000    -4.696000000     2.614000000
O    -2.312000000    -2.386000000    -2.672000000
H    -1.681000000    -2.659000000    -2.007000000
H    -2.951000000    -1.858000000    -2.193000000
O    -4.568000000     2.628000000     1.917000000
H    -5.159000000     1.946000000     1.597000000
H    -5.141000000     3.251000000     2.365000000
O    -1.870000000     2.568000000     3.156000000
H    -2.793000000     2.479000000     2.919000000
H    -1.427000000     2.753000000     2.328000000
O     1.015000000    -5.202000000     5.779000000
H     0.248000000    -4.772000000     5.401000000
H     1.738000000    -4.599000000     5.604000000
O    -5.167000000    -2.783000000    -3.982000000
H    -6.117000000    -2.677000000    -3.940000000
H    -4.823000000    -2.080000000    -3.430000000
O    -0.341000000     3.239000000     1.035000000
H     0.008000000     3.115000000     0.152000000
H     0.424000000     3.176000000     1.606000000
O     2.370000000     3.155000000     1.764000000
H     2.523000000     2.220000000     1.634000000
H     2.924000000     3.387000000     2.509000000
O     3.940000000     0.847000000    -3.528000000
H     4.740000000     1.278000000    -3.829000000
H     3.459000000     1.533000000    -3.064000000
O     4.823000000     0.075000000    -1.014000000
H     5.172000000    -0.816000000    -0.968000000
H     4.914000000     0.321000000    -1.934000000
O     3.056000000    -3.255000000     4.462000000
H     3.750000000    -3.288000000     5.121000000
H     3.028000000    -2.338000000     4.189000000
O     5.268000000     4.415000000     1.309000000
H     4.891000000     4.652000000     2.156000000
H     4.754000000     3.661000000     1.021000000
O     0.455000000    -5.803000000     0.733000000
H     1.263000000    -6.314000000     0.706000000
H     0.647000000    -5.083000000     1.334000000
O     3.096000000     3.641000000    -3.375000000
H     2.448000000     3.396000000    -4.036000000
H     3.546000000     4.398000000    -3.750000000
O     1.821000000     1.861000000     4.647000000
H     1.880000000     1.992000000     5.594000000
H     1.156000000     2.487000000     4.360000000
O    -3.791000000    -3.459000000     1.830000000
H    -3.245000000    -2.713000000     2.078000000
H    -3.167000000    -4.158000000     1.633000000
O    -3.782000000     5.414000000    -2.906000000
H    -3.250000000     4.776000000    -3.382000000
H    -3.545000000     5.284000000    -1.988000000
O    -2.273000000    -1.871000000    -5.203000000
H    -2.235000000    -2.026000000    -4.259000000
H    -1.385000000    -1.603000000    -5.438000000
O     0.232000000    -1.431000000    -5.688000000
H     0.777000000    -0.847000000    -6.215000000
H     0.750000000    -1.597000000    -4.900000000
O    -4.507000000    -1.060000000     4.284000000
H    -4.458000000    -1.879000000     4.777000000
H    -3.692000000    -1.034000000     3.782000000
