144
-2832.94729
O     0.996000000    -6.632000000    -2.107000000
H     1.375000000    -5.783000000    -1.882000000
H     0.108000000    -6.428000000    -2.401000000
O    -3.514000000     7.497000000    -0.919000000
H    -4.074000000     7.397000000    -0.149000000
H    -3.392000000     6.606000000    -1.245000000
O     3.972000000     0.562000000     5.147000000
H     4.881000000     0.765000000     4.925000000
H     3.461000000     0.941000000     4.432000000
O     2.596000000     4.332000000     4.854000000
H     2.533000000     4.127000000     3.922000000
H     1.956000000     5.030000000     4.990000000
O     5.506000000    -2.887000000     0.283000000
H     4.659000000    -2.614000000    -0.068000000
H     6.094000000    -2.875000000    -0.473000000
O    -6.780000000     0.216000000    -2.275000000
H    -6.074000000     0.778000000    -1.956000000
H    -7.476000000     0.314000000    -1.626000000
O     5.438000000    -5.131000000     1.725000000
H     5.119000000    -4.388000000     1.213000000
H     6.297000000    -5.328000000     1.352000000
O     4.044000000    -4.372000000    -1.931000000
H     3.367000000    -3.973000000    -1.384000000
H     4.413000000    -3.641000000    -2.426000000
O     3.830000000    -7.501000000     1.140000000
H     3.085000000    -7.000000000     1.472000000
H     4.493000000    -6.840000000     0.941000000
O     4.130000000    -2.307000000    -4.101000000
H     3.772000000    -1.505000000    -4.482000000
H     4.648000000    -2.696000000    -4.805000000
O    -2.405000000    -1.091000000    -3.447000000
H    -2.605000000    -0.544000000    -4.207000000
H    -1.546000000    -0.788000000    -3.154000000
O    -3.458000000     0.022000000     3.676000000
H    -3.107000000     0.257000000     4.536000000
H    -2.800000000    -0.563000000     3.302000000
O     6.995000000    -0.738000000     2.219000000
H     6.384000000    -1.347000000     1.804000000
H     7.728000000    -1.286000000     2.499000000
O     1.465000000     4.118000000    -1.690000000
H     1.861000000     4.858000000    -2.150000000
H     1.233000000     4.468000000    -0.830000000
O     1.240000000    -3.506000000    -3.421000000
H     1.021000000    -3.451000000    -2.491000000
H     2.150000000    -3.211000000    -3.470000000
O     4.801000000    -0.042000000    -1.844000000
H     4.148000000     0.656000000    -1.796000000
H     4.328000000    -0.831000000    -1.579000000
O     1.122000000    -1.186000000    -4.824000000
H     1.387000000    -1.490000000    -5.692000000
H     0.863000000    -1.982000000    -4.360000000
O     6.597000000     0.058000000    -3.792000000
H     7.498000000    -0.074000000    -3.496000000
H     6.063000000    -0.108000000    -3.015000000
O    -0.162000000    -5.675000000    -4.822000000
H    -1.067000000    -5.380000000    -4.918000000
H     0.265000000    -4.980000000    -4.321000000
O     3.749000000    -1.781000000     2.778000000
H     4.118000000    -0.996000000     2.370000000
H     4.358000000    -2.481000000     2.542000000
O    -3.396000000    -2.669000000     1.308000000
H    -2.999000000    -3.022000000     0.512000000
H    -3.618000000    -3.441000000     1.829000000
O    -4.971000000     1.179000000     1.580000000
H    -5.805000000     1.393000000     1.999000000
H    -4.391000000     0.949000000     2.306000000
O    -0.027000000     0.535000000    -2.894000000
H     0.629000000     0.274000000    -3.541000000
H     0.464000000     0.617000000    -2.076000000
O     5.779000000     2.314000000    -0.579000000
H     6.054000000     1.444000000    -0.869000000
H     5.475000000     2.747000000    -1.377000000
O     0.731000000     5.016000000     0.877000000
H     1.021000000     5.914000000     1.038000000
H     0.018000000     4.879000000     1.502000000
O    -2.857000000     4.832000000    -1.480000000
H    -2.827000000     4.024000000    -1.992000000
H    -1.942000000     5.105000000    -1.410000000
O    -3.317000000    -3.002000000    -1.740000000
H    -4.274000000    -2.977000000    -1.705000000
H    -3.091000000    -2.454000000    -2.492000000
O     7.649000000    -2.665000000    -1.507000000
H     8.537000000    -3.020000000    -1.534000000
H     7.410000000    -2.547000000    -2.426000000
O     1.132000000    -8.555000000     0.165000000
H     0.974000000    -7.852000000    -0.466000000
H     2.037000000    -8.423000000     0.449000000
O    -1.757000000     2.723000000    -2.917000000
H    -1.432000000     3.194000000    -3.684000000
H    -1.218000000     1.933000000    -2.875000000
O     2.098000000    -5.078000000     1.395000000
H     1.355000000    -4.752000000     1.903000000
H     2.103000000    -4.539000000     0.604000000
O    -4.413000000     6.576000000     1.318000000
H    -3.634000000     6.176000000     1.706000000
H    -4.951000000     6.830000000     2.068000000
O     3.005000000     3.120000000     1.028000000
H     3.660000000     3.801000000     1.182000000
H     2.262000000     3.585000000     0.643000000
O    -1.354000000    -4.967000000    -1.584000000
H    -1.333000000    -5.126000000    -0.640000000
H    -2.063000000    -4.336000000    -1.705000000
O    -0.713000000     5.498000000     3.230000000
H    -1.031000000     6.297000000     2.809000000
H    -0.787000000     5.676000000     4.168000000
O    -7.964000000     2.985000000     1.167000000
H    -7.698000000     2.354000000     1.836000000
H    -7.171000000     3.136000000     0.652000000
O     1.078000000    -2.018000000     3.174000000
H     2.029000000    -2.043000000     3.067000000
H     0.817000000    -1.176000000     2.800000000
O     4.357000000     0.857000000     1.985000000
H     5.276000000     0.912000000     2.246000000
H     4.242000000     1.571000000     1.359000000
O    -5.851000000     3.812000000    -0.378000000
H    -5.083000000     4.384000000    -0.379000000
H    -5.531000000     2.981000000    -0.729000000
O    -1.468000000    -6.060000000     0.984000000
H    -1.138000000    -6.956000000     1.043000000
H    -0.831000000    -5.538000000     1.472000000
O     2.792000000     1.981000000    -2.721000000
H     2.315000000     2.135000000    -3.537000000
H     2.431000000     2.622000000    -2.108000000
O    -0.159000000     0.040000000     4.926000000
H     0.337000000    -0.727000000     4.641000000
H     0.407000000     0.783000000     4.716000000
O    -4.690000000     1.544000000    -1.387000000
H    -4.606000000     1.253000000    -0.479000000
H    -3.827000000     1.386000000    -1.769000000
O     1.995000000     1.220000000     3.217000000
H     1.359000000     0.915000000     2.571000000
H     2.789000000     1.391000000     2.710000000
O    -3.307000000    -4.913000000     3.018000000
H    -3.163000000    -5.692000000     3.556000000
H    -2.633000000    -4.961000000     2.341000000
O     6.391000000    -6.245000000    -1.357000000
H     7.029000000    -5.595000000    -1.650000000
H     5.541000000    -5.839000000    -1.528000000
O    -6.141000000    -1.351000000     0.933000000
H    -5.777000000    -0.481000000     1.101000000
H    -5.403000000    -1.947000000     1.061000000
O    -0.326000000    -4.493000000     2.925000000
H    -0.011000000    -3.596000000     2.809000000
H    -0.285000000    -4.640000000     3.870000000
