144
-2831.04366
O     3.216000000     2.422000000    -4.820000000
H     3.166000000     2.462000000    -5.775000000
H     2.436000000     1.934000000    -4.559000000
O     3.189000000    -1.780000000     0.669000000
H     2.536000000    -2.144000000     0.072000000
H     3.248000000    -2.421000000     1.378000000
O     2.583000000     4.122000000     3.836000000
H     3.058000000     4.490000000     4.580000000
H     2.918000000     3.229000000     3.756000000
O    -6.153000000     1.936000000     2.165000000
H    -5.410000000     2.196000000     2.710000000
H    -5.870000000     1.122000000     1.748000000
O     3.253000000    -2.770000000    -2.080000000
H     2.391000000    -2.366000000    -2.177000000
H     3.867000000    -2.037000000    -2.116000000
O     4.568000000     0.583000000    -0.253000000
H     4.020000000    -0.183000000    -0.084000000
H     4.110000000     1.058000000    -0.946000000
O     2.325000000    -6.344000000    -0.177000000
H     2.544000000    -5.501000000     0.220000000
H     1.896000000    -6.117000000    -1.002000000
O    -1.720000000     5.404000000     5.277000000
H    -1.197000000     5.714000000     4.538000000
H    -2.604000000     5.312000000     4.923000000
O    -5.394000000    -2.336000000     0.195000000
H    -6.152000000    -2.733000000     0.624000000
H    -5.760000000    -1.622000000    -0.327000000
O     3.523000000    -4.969000000    -3.688000000
H     2.823000000    -5.574000000    -3.440000000
H     3.499000000    -4.287000000    -3.016000000
O     0.355000000     5.897000000     3.270000000
H     0.870000000     5.144000000     2.980000000
H     0.974000000     6.435000000     3.764000000
O    -4.585000000     4.094000000    -0.803000000
H    -4.542000000     4.697000000    -0.061000000
H    -4.279000000     3.258000000    -0.450000000
O     1.182000000    -3.715000000     0.457000000
H     0.730000000    -3.808000000    -0.381000000
H     0.863000000    -4.447000000     0.984000000
O    -3.012000000    -1.335000000    -5.896000000
H    -2.596000000    -1.518000000    -5.054000000
H    -2.298000000    -1.386000000    -6.532000000
O    -3.000000000    -2.496000000    -2.611000000
H    -2.109000000    -2.845000000    -2.620000000
H    -3.549000000    -3.246000000    -2.384000000
O    -4.149000000     0.217000000    -3.676000000
H    -5.003000000    -0.179000000    -3.502000000
H    -3.527000000    -0.345000000    -3.215000000
O     3.851000000     2.325000000    -2.199000000
H     2.907000000     2.478000000    -2.246000000
H     4.086000000     2.011000000    -3.072000000
O    -1.257000000     6.491000000     1.276000000
H    -0.703000000     6.294000000     2.031000000
H    -0.786000000     6.118000000     0.530000000
O    -3.458000000     1.415000000    -0.624000000
H    -2.740000000     0.945000000    -0.200000000
H    -4.225000000     0.860000000    -0.481000000
O    -1.786000000    -5.113000000    -6.045000000
H    -1.841000000    -5.637000000    -5.246000000
H    -1.106000000    -4.466000000    -5.860000000
O    -3.651000000     2.194000000     3.099000000
H    -3.538000000     2.994000000     2.585000000
H    -3.160000000     2.356000000     3.905000000
O     6.301000000     3.069000000    -1.296000000
H     6.912000000     2.536000000    -1.805000000
H     5.441000000     2.861000000    -1.660000000
O    -0.336000000    -6.131000000     1.463000000
H    -1.137000000    -5.815000000     1.880000000
H    -0.277000000    -7.050000000     1.725000000
O    -0.889000000     3.041000000     6.502000000
H    -0.288000000     3.776000000     6.625000000
H    -1.575000000     3.387000000     5.931000000
O    -2.347000000     3.551000000    -2.944000000
H    -2.437000000     2.837000000    -3.575000000
H    -2.943000000     3.317000000    -2.232000000
O    -3.614000000     1.749000000     5.987000000
H    -3.253000000     2.001000000     6.837000000
H    -3.703000000     0.797000000     6.037000000
O    -0.911000000    -0.882000000    -7.258000000
H    -0.067000000    -0.468000000    -7.078000000
H    -0.699000000    -1.619000000    -7.830000000
O    -2.164000000    -4.904000000     3.197000000
H    -2.370000000    -4.281000000     2.501000000
H    -2.883000000    -4.810000000     3.823000000
O     1.578000000     3.700000000    -2.678000000
H     2.000000000     4.259000000    -3.331000000
H     1.713000000     4.157000000    -1.848000000
O    -0.738000000     4.430000000    -0.498000000
H     0.208000000     4.331000000    -0.388000000
H    -0.913000000     4.090000000    -1.375000000
O    -3.631000000    -2.994000000     2.105000000
H    -3.512000000    -2.062000000     2.285000000
H    -4.034000000    -3.021000000     1.238000000
O     1.032000000    -5.276000000    -2.294000000
H     0.517000000    -4.480000000    -2.164000000
H     0.392000000    -5.986000000    -2.248000000
O     0.261000000     0.232000000     6.787000000
H    -0.010000000     1.124000000     6.568000000
H     1.218000000     0.266000000     6.788000000
O     2.131000000    -0.564000000     3.072000000
H     2.216000000    -0.904000000     2.181000000
H     1.373000000     0.019000000     3.034000000
O    -0.904000000    -6.756000000    -1.399000000
H    -0.515000000    -6.341000000    -0.629000000
H    -1.269000000    -7.577000000    -1.069000000
O     4.445000000    -1.630000000    -6.752000000
H     4.992000000    -0.846000000    -6.799000000
H     3.706000000    -1.375000000    -6.200000000
O    -1.735000000    -6.892000000    -3.846000000
H    -1.216000000    -6.663000000    -3.075000000
H    -2.644000000    -6.818000000    -3.554000000
O     1.540000000    -0.597000000    -5.540000000
H     1.115000000     0.231000000    -5.317000000
H     1.392000000    -1.156000000    -4.776000000
O     1.809000000     4.854000000     0.008000000
H     2.081000000     5.765000000     0.121000000
H     2.475000000     4.346000000     0.469000000
O    -0.193000000    -3.135000000    -5.285000000
H     0.646000000    -3.454000000    -5.619000000
H     0.024000000    -2.723000000    -4.449000000
O     3.768000000     1.691000000     3.712000000
H     3.657000000     0.744000000     3.795000000
H     3.923000000     1.833000000     2.778000000
O    -2.573000000     4.117000000     1.665000000
H    -2.086000000     4.939000000     1.603000000
H    -2.216000000     3.573000000     0.963000000
O     4.010000000     3.268000000     0.816000000
H     4.375000000     2.444000000     0.494000000
H     4.766000000     3.849000000     0.898000000
O     0.336000000     1.797000000    -4.563000000
H    -0.602000000     1.817000000    -4.754000000
H     0.413000000     2.205000000    -3.700000000
O    -3.913000000    -0.551000000     3.285000000
H    -4.334000000    -0.825000000     4.100000000
H    -3.791000000     0.393000000     3.384000000
O     0.281000000    -2.385000000     5.161000000
H    -0.044000000    -1.597000000     5.596000000
H     1.129000000    -2.125000000     4.799000000
O    -1.366000000     6.577000000    -2.580000000
H    -2.022000000     6.234000000    -3.188000000
H    -1.502000000     6.078000000    -1.775000000
O    -4.090000000    -5.964000000     0.212000000
H    -4.206000000    -5.597000000    -0.664000000
H    -4.970000000    -5.972000000     0.588000000
