144
-2763.95093
O     2.852000000    -1.214000000     4.251000000
H     3.459000000    -0.519000000     3.995000000
H     3.296000000    -2.024000000     3.998000000
O     2.073000000     1.912000000     3.533000000
H     2.465000000     2.546000000     2.932000000
H     2.622000000     1.133000000     3.452000000
O     4.814000000    -3.424000000    -2.161000000
H     4.051000000    -2.958000000    -1.819000000
H     4.828000000    -3.209000000    -3.094000000
O    -6.816000000    -0.383000000     4.106000000
H    -7.303000000     0.134000000     4.748000000
H    -5.986000000     0.084000000     4.003000000
O     3.168000000     4.056000000     1.982000000
H     2.838000000     4.846000000     1.554000000
H     4.117000000     4.173000000     2.002000000
O     1.649000000    -3.217000000    -4.094000000
H     1.927000000    -3.022000000    -3.199000000
H     1.215000000    -2.417000000    -4.390000000
O     0.042000000    -7.728000000    -2.670000000
H     0.732000000    -7.205000000    -3.076000000
H     0.069000000    -8.564000000    -3.135000000
O     7.782000000    -3.240000000     1.870000000
H     7.130000000    -2.576000000     1.646000000
H     7.273000000    -3.963000000     2.234000000
O     0.624000000    -0.925000000    -5.376000000
H     0.779000000    -0.108000000    -5.850000000
H     0.177000000    -1.488000000    -6.009000000
O    -2.481000000     3.448000000    -4.100000000
H    -2.807000000     3.733000000    -4.955000000
H    -2.349000000     2.505000000    -4.197000000
O    -2.633000000    -2.398000000     1.324000000
H    -1.878000000    -2.917000000     1.600000000
H    -2.274000000    -1.763000000     0.704000000
O     4.257000000    -4.261000000     0.719000000
H     4.572000000    -4.866000000     0.047000000
H     3.911000000    -3.516000000     0.227000000
O    -2.033000000     5.421000000    -2.197000000
H    -2.786000000     6.006000000    -2.281000000
H    -2.250000000     4.671000000    -2.752000000
O    -3.760000000    -0.954000000    -4.205000000
H    -4.249000000    -0.178000000    -4.480000000
H    -4.357000000    -1.416000000    -3.616000000
O     4.176000000     0.202000000    -2.029000000
H     3.466000000     0.470000000    -2.613000000
H     3.873000000    -0.622000000    -1.647000000
O     4.644000000     0.548000000     3.372000000
H     5.495000000     0.375000000     3.775000000
H     4.849000000     1.064000000     2.592000000
O    -1.526000000     0.284000000    -4.455000000
H    -0.802000000    -0.325000000    -4.599000000
H    -2.273000000    -0.276000000    -4.247000000
O     4.345000000    -3.849000000     3.401000000
H     4.494000000    -3.864000000     2.456000000
H     5.216000000    -3.959000000     3.783000000
O    -2.577000000    -3.607000000    -4.703000000
H    -2.938000000    -2.827000000    -4.281000000
H    -1.974000000    -3.266000000    -5.362000000
O    -0.865000000    -4.789000000     1.918000000
H    -0.168000000    -4.255000000     2.299000000
H    -1.414000000    -5.034000000     2.663000000
O     5.622000000    -1.330000000     0.838000000
H     5.050000000    -0.620000000     1.127000000
H     5.060000000    -1.886000000     0.298000000
O    -5.335000000    -2.699000000     2.733000000
H    -5.987000000    -2.191000000     2.250000000
H    -4.509000000    -2.518000000     2.284000000
O    -4.681000000     1.936000000     3.858000000
H    -4.616000000     2.115000000     2.920000000
H    -4.605000000     2.796000000     4.271000000
O    -5.901000000     0.666000000    -2.244000000
H    -6.394000000     1.336000000    -1.771000000
H    -6.251000000    -0.163000000    -1.918000000
O     6.361000000    -0.118000000    -3.812000000
H     5.735000000    -0.184000000    -3.090000000
H     5.849000000    -0.330000000    -4.592000000
O     0.242000000     5.689000000     2.885000000
H     1.022000000     6.073000000     2.485000000
H    -0.150000000     5.162000000     2.189000000
O    -3.180000000     5.113000000     2.212000000
H    -3.784000000     4.671000000     1.615000000
H    -3.371000000     4.732000000     3.070000000
O     4.123000000    -1.962000000    -4.843000000
H     4.303000000    -2.059000000    -5.778000000
H     3.269000000    -2.376000000    -4.719000000
O    -4.521000000     3.184000000    -2.018000000
H    -3.813000000     3.167000000    -2.661000000
H    -4.979000000     2.353000000    -2.143000000
O     2.220000000     3.957000000     5.218000000
H     1.266000000     4.030000000     5.206000000
H     2.413000000     3.243000000     4.610000000
O    -0.483000000    -4.845000000    -0.953000000
H    -0.508000000    -4.698000000    -0.008000000
H     0.332000000    -4.432000000    -1.238000000
O     7.409000000    -4.588000000    -1.806000000
H     8.110000000    -4.607000000    -1.154000000
H     6.740000000    -4.022000000    -1.422000000
O     2.319000000     5.709000000    -0.390000000
H     1.380000000     5.618000000    -0.554000000
H     2.498000000     6.638000000    -0.534000000
O     2.217000000    -5.908000000    -2.877000000
H     1.905000000    -5.121000000    -2.431000000
H     3.168000000    -5.805000000    -2.909000000
O    -0.046000000    -1.638000000     2.858000000
H     0.626000000    -2.019000000     2.293000000
H    -0.013000000    -0.700000000     2.671000000
O     5.120000000     1.737000000     0.960000000
H     4.412000000     2.241000000     0.558000000
H     5.899000000     1.975000000     0.457000000
O    -1.629000000     6.555000000     4.457000000
H    -2.455000000     6.319000000     4.035000000
H    -0.956000000     6.278000000     3.836000000
O     1.434000000    -7.350000000    -0.138000000
H     2.332000000    -7.323000000    -0.467000000
H     0.889000000    -7.325000000    -0.925000000
O    -2.335000000    -6.687000000    -1.308000000
H    -1.743000000    -7.396000000    -1.559000000
H    -1.764000000    -5.925000000    -1.204000000
O     1.211000000     0.938000000    -2.948000000
H     0.503000000     0.754000000    -2.332000000
H     0.869000000     0.659000000    -3.797000000
O     0.657000000    -5.225000000    -5.843000000
H     0.894000000    -4.696000000    -6.605000000
H     0.960000000    -4.713000000    -5.093000000
O     7.800000000    -0.130000000     0.075000000
H     8.281000000     0.138000000     0.859000000
H     7.016000000    -0.564000000     0.411000000
O     0.780000000     0.890000000     5.571000000
H     1.023000000    -0.036000000     5.541000000
H     0.924000000     1.204000000     4.679000000
O    -1.870000000     8.155000000     0.742000000
H    -1.587000000     7.243000000     0.810000000
H    -2.391000000     8.186000000    -0.060000000
O    -1.188000000     5.603000000     0.350000000
H    -1.463000000     5.438000000    -0.552000000
H    -1.960000000     5.397000000     0.877000000
O    -5.081000000     3.665000000     0.791000000
H    -4.970000000     3.367000000    -0.112000000
H    -5.928000000     4.111000000     0.794000000
O    -4.340000000    -0.026000000     5.750000000
H    -4.309000000     0.760000000     5.204000000
H    -3.681000000    -0.607000000     5.370000000
O     1.651000000    -3.493000000     1.917000000
H     2.604000000    -3.498000000     2.008000000
H     1.471000000    -4.154000000     1.250000000
