144
-2808.48147
O     3.335000000    -0.315000000     2.658000000
H     3.635000000    -0.132000000     3.549000000
H     4.028000000    -0.855000000     2.278000000
O     0.425000000     5.406000000     5.336000000
H     0.407000000     5.714000000     4.430000000
H    -0.223000000     5.947000000     5.786000000
O     3.512000000     4.783000000     3.185000000
H     2.953000000     5.556000000     3.108000000
H     4.274000000     5.087000000     3.679000000
O     4.777000000    -3.557000000    -1.556000000
H     4.328000000    -2.712000000    -1.553000000
H     5.679000000    -3.348000000    -1.801000000
O    -2.896000000     0.451000000     4.729000000
H    -2.405000000    -0.316000000     5.025000000
H    -2.224000000     1.076000000     4.458000000
O     1.398000000     7.019000000     2.877000000
H     0.767000000     7.355000000     2.241000000
H     1.916000000     7.784000000     3.127000000
O     3.091000000    -3.355000000    -4.164000000
H     2.712000000    -3.084000000    -3.328000000
H     4.032000000    -3.218000000    -4.056000000
O     0.642000000    -6.956000000    -0.169000000
H     0.081000000    -6.507000000     0.463000000
H     1.210000000    -6.269000000    -0.517000000
O     0.427000000    -2.786000000    -5.307000000
H     1.328000000    -3.058000000    -5.133000000
H     0.437000000    -1.836000000    -5.192000000
O    -7.383000000    -0.743000000     0.319000000
H    -7.010000000    -1.234000000     1.051000000
H    -7.001000000     0.132000000     0.399000000
O    -1.165000000     4.086000000    -3.037000000
H    -1.689000000     4.504000000    -2.353000000
H    -1.383000000     3.156000000    -2.970000000
O    -3.161000000    -2.049000000     1.951000000
H    -3.909000000    -1.466000000     2.074000000
H    -2.688000000    -1.679000000     1.205000000
O     2.454000000    -5.405000000    -1.752000000
H     1.768000000    -4.759000000    -1.584000000
H     3.236000000    -4.883000000    -1.932000000
O    -2.126000000     5.822000000     0.035000000
H    -1.963000000     5.664000000     0.965000000
H    -2.670000000     5.086000000    -0.242000000
O    -3.460000000    -3.515000000    -3.519000000
H    -2.612000000    -3.841000000    -3.821000000
H    -3.896000000    -3.209000000    -4.315000000
O    -3.758000000     0.923000000    -2.345000000
H    -4.600000000     1.151000000    -2.739000000
H    -3.895000000     0.052000000    -1.973000000
O     3.204000000    -0.362000000    -2.957000000
H     2.728000000    -0.031000000    -3.718000000
H     2.759000000    -1.180000000    -2.733000000
O     3.983000000     3.467000000     0.823000000
H     3.301000000     3.956000000     0.363000000
H     3.781000000     3.589000000     1.751000000
O    -0.989000000     0.967000000    -2.662000000
H    -1.116000000     0.706000000    -1.750000000
H    -1.875000000     1.036000000    -3.018000000
O     5.733000000    -0.962000000     1.219000000
H     5.747000000    -1.872000000     0.921000000
H     5.463000000    -0.462000000     0.449000000
O     5.515000000    -0.146000000    -1.490000000
H     5.887000000    -0.913000000    -1.926000000
H     4.813000000     0.143000000    -2.073000000
O    -5.131000000     0.040000000     2.604000000
H    -4.287000000     0.035000000     3.058000000
H    -5.315000000     0.967000000     2.453000000
O    -3.542000000     3.775000000    -1.249000000
H    -4.416000000     4.165000000    -1.261000000
H    -3.607000000     3.025000000    -1.841000000
O     3.965000000     3.163000000    -2.539000000
H     3.196000000     2.857000000    -2.058000000
H     4.317000000     2.375000000    -2.953000000
O    -2.557000000     5.479000000     3.900000000
H    -3.506000000     5.575000000     3.978000000
H    -2.302000000     4.983000000     4.678000000
O    -5.263000000     2.725000000     2.362000000
H    -4.853000000     3.559000000     2.132000000
H    -5.940000000     2.958000000     2.997000000
O    -0.829000000    -4.548000000     0.717000000
H    -0.330000000    -4.263000000     1.483000000
H    -0.417000000    -4.095000000    -0.019000000
O     5.121000000    -5.975000000    -0.251000000
H     5.239000000    -5.162000000    -0.743000000
H     5.243000000    -6.667000000    -0.901000000
O     2.845000000     5.938000000    -0.886000000
H     3.113000000     5.238000000    -1.481000000
H     2.539000000     6.638000000    -1.463000000
O    -4.000000000    -1.642000000    -1.320000000
H    -4.707000000    -2.170000000    -1.691000000
H    -3.203000000    -2.129000000    -1.531000000
O    -1.450000000     2.700000000     5.071000000
H    -0.555000000     2.962000000     4.858000000
H    -1.735000000     3.334000000     5.730000000
O    -0.774000000    -4.351000000    -3.421000000
H    -0.493000000    -3.998000000    -2.576000000
H    -0.314000000    -3.817000000    -4.069000000
O     0.993000000    -1.399000000     3.606000000
H     1.581000000    -0.906000000     3.034000000
H     0.578000000    -0.734000000     4.154000000
O    -1.427000000    -8.356000000    -1.639000000
H    -0.506000000    -8.115000000    -1.732000000
H    -1.498000000    -9.205000000    -2.075000000
O     2.926000000    -4.830000000     1.337000000
H     3.030000000    -5.661000000     0.872000000
H     3.785000000    -4.412000000     1.275000000
O     3.331000000     0.403000000    -6.000000000
H     2.576000000     0.182000000    -5.456000000
H     3.802000000    -0.424000000    -6.104000000
O    -2.677000000    -6.725000000    -3.470000000
H    -2.335000000    -7.403000000    -2.887000000
H    -2.152000000    -5.950000000    -3.271000000
O     1.029000000     0.198000000    -4.696000000
H     0.420000000     0.523000000    -4.033000000
H     0.758000000     0.634000000    -5.504000000
O     1.534000000     2.212000000     3.821000000
H     1.920000000     1.555000000     3.243000000
H     1.788000000     3.050000000     3.436000000
O     1.056000000     8.123000000    -0.039000000
H     1.619000000     8.643000000    -0.612000000
H     1.460000000     7.256000000    -0.027000000
O    -3.668000000    -4.824000000     2.009000000
H    -3.344000000    -3.932000000     1.881000000
H    -3.044000000    -5.376000000     1.537000000
O    -1.545000000    -2.937000000     4.021000000
H    -0.652000000    -2.748000000     3.734000000
H    -2.087000000    -2.760000000     3.252000000
O     0.864000000    -6.753000000    -3.742000000
H     1.455000000    -6.301000000    -3.140000000
H     0.131000000    -6.149000000    -3.858000000
O     6.298000000     1.902000000     0.084000000
H     6.103000000     1.193000000    -0.529000000
H     5.455000000     2.329000000     0.233000000
O     0.771000000    -4.194000000     2.667000000
H     1.111000000    -3.405000000     3.089000000
H     1.552000000    -4.703000000     2.447000000
O     1.325000000     3.055000000    -1.779000000
H     0.760000000     2.284000000    -1.719000000
H     0.797000000     3.702000000    -2.247000000
O    -6.344000000     1.908000000    -0.178000000
H    -6.604000000     2.486000000    -0.895000000
H    -5.515000000     1.526000000    -0.466000000
O    -2.219000000    -6.999000000     0.624000000
H    -1.686000000    -6.221000000     0.789000000
H    -1.906000000    -7.329000000    -0.218000000
