144
-2821.23061
O    -2.461000000    -2.488000000     4.803000000
H    -1.620000000    -2.173000000     5.137000000
H    -2.243000000    -2.929000000     3.982000000
O     4.350000000    -0.885000000     2.087000000
H     4.903000000    -1.650000000     2.243000000
H     4.813000000    -0.388000000     1.414000000
O    -2.332000000     6.198000000     3.386000000
H    -1.912000000     6.705000000     2.691000000
H    -3.235000000     6.515000000     3.401000000
O     1.927000000     5.206000000     2.496000000
H     2.394000000     5.318000000     3.324000000
H     1.179000000     4.651000000     2.717000000
O     3.487000000    -3.305000000    -3.369000000
H     2.756000000    -2.978000000    -2.845000000
H     4.267000000    -2.968000000    -2.928000000
O    -1.743000000     1.052000000     4.351000000
H    -0.981000000     0.476000000     4.292000000
H    -1.375000000     1.935000000     4.375000000
O     3.028000000    -6.100000000    -3.629000000
H     2.134000000    -6.113000000    -3.289000000
H     3.308000000    -5.189000000    -3.532000000
O    -1.062000000     7.780000000     1.443000000
H    -0.921000000     7.123000000     0.761000000
H    -1.440000000     8.527000000     0.980000000
O     3.721000000    -3.889000000    -5.986000000
H     3.564000000    -3.494000000    -5.128000000
H     4.550000000    -3.510000000    -6.276000000
O     1.711000000     7.605000000     1.072000000
H     1.772000000     6.723000000     1.439000000
H     0.876000000     7.942000000     1.397000000
O     6.176000000    -2.013000000    -2.562000000
H     6.873000000    -1.378000000    -2.395000000
H     6.637000000    -2.810000000    -2.823000000
O     0.965000000    -6.855000000     0.551000000
H     1.375000000    -7.705000000     0.391000000
H     1.658000000    -6.218000000     0.376000000
O     1.246000000    -5.163000000    -6.010000000
H     2.000000000    -4.574000000    -6.025000000
H     1.250000000    -5.579000000    -6.872000000
O    -1.906000000     4.430000000    -2.978000000
H    -2.490000000     4.070000000    -3.646000000
H    -1.742000000     3.698000000    -2.383000000
O    -3.047000000    -4.716000000     2.316000000
H    -3.864000000    -4.313000000     2.611000000
H    -3.082000000    -4.659000000     1.362000000
O     0.418000000    -5.737000000    -2.995000000
H     0.528000000    -4.932000000    -2.488000000
H    -0.198000000    -6.260000000    -2.482000000
O    -3.814000000     6.972000000    -0.536000000
H    -2.857000000     6.940000000    -0.571000000
H    -4.073000000     6.090000000    -0.268000000
O    -5.037000000    -4.082000000    -3.901000000
H    -4.526000000    -3.634000000    -3.226000000
H    -5.907000000    -3.688000000    -3.844000000
O    -3.184000000     0.074000000    -2.943000000
H    -3.902000000    -0.041000000    -3.566000000
H    -3.336000000    -0.595000000    -2.276000000
O     2.447000000    -0.823000000    -4.805000000
H     1.891000000    -0.104000000    -4.504000000
H     2.240000000    -1.549000000    -4.217000000
O     3.354000000     3.543000000     0.242000000
H     2.453000000     3.494000000    -0.078000000
H     3.267000000     3.761000000     1.170000000
O    -1.774000000     1.986000000    -1.932000000
H    -1.350000000     1.582000000    -1.175000000
H    -2.484000000     1.385000000    -2.158000000
O    -4.206000000     0.087000000     3.345000000
H    -3.501000000     0.424000000     3.897000000
H    -4.242000000     0.694000000     2.605000000
O    -4.376000000     4.094000000    -0.866000000
H    -5.052000000     3.775000000    -1.464000000
H    -3.569000000     4.067000000    -1.380000000
O     4.134000000     1.051000000    -2.790000000
H     3.353000000     1.520000000    -3.083000000
H     4.454000000     0.605000000    -3.575000000
O    -1.746000000    -7.651000000     0.703000000
H    -1.568000000    -8.586000000     0.804000000
H    -0.881000000    -7.250000000     0.619000000
O    -3.369000000     4.080000000     4.965000000
H    -3.307000000     4.665000000     4.210000000
H    -4.243000000     3.695000000     4.900000000
O    -4.765000000     2.618000000     2.056000000
H    -4.571000000     3.346000000     1.465000000
H    -5.324000000     3.002000000     2.732000000
O     1.481000000     1.836000000     4.347000000
H     0.776000000     2.453000000     4.545000000
H     1.568000000     1.311000000     5.143000000
O    -3.354000000    -4.119000000    -0.444000000
H    -3.765000000    -3.256000000    -0.497000000
H    -2.515000000    -4.012000000    -0.891000000
O     0.881000000     4.156000000    -1.708000000
H     1.036000000     3.357000000    -2.212000000
H     1.542000000     4.772000000    -2.025000000
O    -4.874000000    -1.776000000    -0.805000000
H    -5.006000000    -0.830000000    -0.745000000
H    -5.740000000    -2.149000000    -0.640000000
O    -0.206000000     4.174000000     4.204000000
H     0.361000000     4.822000000     4.622000000
H    -0.983000000     4.668000000     3.944000000
O    -1.498000000    -4.041000000    -4.136000000
H    -1.449000000    -3.913000000    -3.189000000
H    -0.771000000    -4.631000000    -4.336000000
O     1.479000000    -1.857000000     2.134000000
H     2.407000000    -1.951000000     1.919000000
H     1.119000000    -1.336000000     1.417000000
O    -1.873000000    -7.398000000    -2.124000000
H    -1.953000000    -7.335000000    -1.173000000
H    -1.573000000    -8.293000000    -2.282000000
O     2.732000000    -4.796000000    -0.191000000
H     3.544000000    -4.296000000    -0.275000000
H     2.125000000    -4.370000000    -0.796000000
O    -3.254000000    -6.480000000    -4.489000000
H    -2.673000000    -6.509000000    -3.729000000
H    -3.788000000    -5.697000000    -4.353000000
O    -0.107000000    -2.013000000    -5.802000000
H    -0.306000000    -1.148000000    -5.443000000
H    -0.574000000    -2.622000000    -5.230000000
O     3.983000000     1.845000000     3.309000000
H     3.960000000     0.959000000     2.948000000
H     3.079000000     2.022000000     3.569000000
O    -1.115000000     0.353000000    -4.794000000
H    -1.685000000     0.180000000    -4.044000000
H    -1.712000000     0.628000000    -5.490000000
O    -1.092000000     6.407000000    -0.847000000
H    -0.670000000     5.548000000    -0.816000000
H    -1.213000000     6.580000000    -1.781000000
O    -5.210000000    -2.423000000     2.297000000
H    -4.832000000    -1.735000000     2.844000000
H    -5.526000000    -1.963000000     1.519000000
O     5.106000000     0.861000000     0.082000000
H     4.735000000     0.676000000    -0.781000000
H     4.630000000     1.633000000     0.387000000
O    -0.374000000    -3.561000000     2.862000000
H     0.255000000    -2.926000000     2.520000000
H    -0.492000000    -4.189000000     2.150000000
O     1.368000000     1.919000000    -3.548000000
H     0.419000000     2.035000000    -3.506000000
H     1.656000000     2.541000000    -4.216000000
O    -5.437000000     1.013000000    -0.182000000
H    -5.254000000     1.666000000     0.494000000
H    -5.627000000     1.528000000    -0.967000000
O     0.093000000    -0.959000000     4.596000000
H     0.821000000    -0.777000000     5.190000000
H     0.510000000    -1.129000000     3.751000000
