144
-2840.12347
O    -0.503000000     1.229000000    -4.440000000
H    -0.607000000     1.285000000    -5.390000000
H    -1.398000000     1.236000000    -4.100000000
O     0.364000000     4.406000000    -3.717000000
H     0.516000000     3.470000000    -3.849000000
H     0.894000000     4.629000000    -2.952000000
O     2.334000000    -6.399000000    -3.299000000
H     2.518000000    -6.586000000    -4.220000000
H     1.379000000    -6.382000000    -3.244000000
O     0.441000000     7.257000000    -2.548000000
H    -0.507000000     7.147000000    -2.623000000
H     0.549000000     8.012000000    -1.970000000
O     3.270000000    -4.722000000     5.123000000
H     2.884000000    -4.749000000     5.998000000
H     2.522000000    -4.789000000     4.529000000
O     2.096000000     1.534000000    -2.738000000
H     1.700000000     1.040000000    -3.455000000
H     2.641000000     0.895000000    -2.278000000
O     2.477000000     1.513000000     4.703000000
H     3.120000000     2.222000000     4.676000000
H     2.751000000     0.916000000     4.007000000
O    -2.546000000     0.064000000     3.353000000
H    -2.307000000     0.974000000     3.528000000
H    -2.170000000    -0.428000000     4.083000000
O    -1.798000000    -2.884000000     2.875000000
H    -1.524000000    -2.556000000     2.018000000
H    -1.526000000    -2.203000000     3.490000000
O    -2.771000000    -6.401000000    -0.456000000
H    -3.266000000    -5.932000000     0.217000000
H    -3.058000000    -7.310000000    -0.374000000
O     3.388000000    -2.180000000     0.961000000
H     3.773000000    -2.468000000     1.789000000
H     2.614000000    -2.733000000     0.852000000
O    -4.941000000    -1.219000000     1.871000000
H    -4.058000000    -0.937000000     2.110000000
H    -4.804000000    -1.943000000     1.260000000
O     3.349000000     7.419000000     0.031000000
H     3.421000000     8.258000000    -0.424000000
H     2.409000000     7.299000000     0.166000000
O     2.237000000    -6.998000000     0.832000000
H     1.337000000    -6.794000000     1.086000000
H     2.428000000    -6.388000000     0.119000000
O     4.148000000     0.327000000     2.597000000
H     3.633000000    -0.210000000     1.994000000
H     4.999000000     0.420000000     2.169000000
O    -1.466000000     7.658000000     2.921000000
H    -2.042000000     7.891000000     2.193000000
H    -1.503000000     6.702000000     2.959000000
O    -0.620000000     5.246000000    -6.100000000
H     0.002000000     5.952000000    -6.277000000
H    -0.218000000     4.744000000    -5.391000000
O     0.726000000     6.346000000     0.830000000
H     1.042000000     6.276000000     1.731000000
H     0.294000000     5.509000000     0.661000000
O    -2.901000000     2.025000000    -2.771000000
H    -2.492000000     2.690000000    -2.217000000
H    -3.834000000     2.239000000    -2.753000000
O    -1.450000000     4.605000000     3.050000000
H    -0.780000000     3.929000000     2.944000000
H    -1.964000000     4.316000000     3.804000000
O    -0.355000000    -6.779000000     1.763000000
H    -1.015000000    -6.239000000     1.327000000
H    -0.846000000    -7.271000000     2.421000000
O    -0.742000000    -1.612000000     4.984000000
H    -0.664000000    -2.483000000     5.374000000
H    -0.028000000    -1.109000000     5.376000000
O    -4.339000000    -2.694000000    -0.284000000
H    -5.157000000    -2.428000000    -0.704000000
H    -3.669000000    -2.149000000    -0.697000000
O     0.281000000    -1.599000000    -4.640000000
H    -0.019000000    -0.727000000    -4.896000000
H     1.165000000    -1.459000000    -4.301000000
O    -3.502000000    -0.689000000    -2.349000000
H    -4.307000000    -0.477000000    -2.821000000
H    -3.013000000     0.133000000    -2.326000000
O    -3.576000000     4.315000000     1.147000000
H    -3.409000000     4.384000000     0.207000000
H    -2.766000000     4.617000000     1.558000000
O     0.911000000    -4.770000000     3.768000000
H     0.096000000    -4.335000000     4.019000000
H     0.632000000    -5.613000000     3.409000000
O    -0.015000000    -4.308000000    -5.203000000
H     0.230000000    -4.480000000    -4.294000000
H    -0.010000000    -3.354000000    -5.276000000
O     3.228000000    -1.967000000    -3.764000000
H     2.906000000    -2.853000000    -3.603000000
H     3.457000000    -1.634000000    -2.896000000
O    -3.770000000    -2.158000000    -6.534000000
H    -3.258000000    -2.391000000    -5.759000000
H    -3.709000000    -2.927000000    -7.101000000
O     1.193000000    -0.067000000     6.491000000
H     1.913000000     0.312000000     5.987000000
H     1.136000000     0.478000000     7.275000000
O    -0.309000000    -5.496000000    -2.694000000
H    -1.239000000    -5.644000000    -2.863000000
H    -0.202000000    -5.681000000    -1.761000000
O     3.432000000    -0.474000000    -1.348000000
H     4.034000000     0.144000000    -0.932000000
H     3.304000000    -1.161000000    -0.693000000
O     3.906000000     4.073000000    -2.980000000
H     4.159000000     4.858000000    -2.494000000
H     3.171000000     3.712000000    -2.486000000
O    -5.047000000    -3.955000000    -3.082000000
H    -4.275000000    -3.450000000    -3.337000000
H    -4.749000000    -4.864000000    -3.081000000
O     4.755000000     5.871000000     1.848000000
H     4.862000000     6.324000000     2.684000000
H     4.364000000     6.525000000     1.269000000
O     2.765000000    -5.198000000    -1.060000000
H     2.767000000    -5.698000000    -1.876000000
H     3.643000000    -4.820000000    -1.007000000
O     4.964000000    -3.880000000    -0.963000000
H     4.559000000    -3.420000000    -0.227000000
H     5.752000000    -3.372000000    -1.157000000
O    -2.580000000    -2.781000000    -3.804000000
H    -2.990000000    -2.038000000    -3.361000000
H    -1.652000000    -2.551000000    -3.848000000
O     1.253000000     6.198000000     5.845000000
H     1.148000000     5.646000000     5.070000000
H     0.934000000     7.058000000     5.570000000
O     3.699000000     3.665000000     2.932000000
H     3.894000000     4.403000000     2.354000000
H     3.405000000     2.970000000     2.343000000
O     1.818000000     4.630000000    -1.371000000
H     1.741000000     5.551000000    -1.123000000
H     1.174000000     4.180000000    -0.824000000
O    -3.262000000    -6.279000000    -3.257000000
H    -3.163000000    -7.206000000    -3.471000000
H    -3.266000000    -6.253000000    -2.300000000
O     1.641000000     5.247000000     3.416000000
H     1.008000000     4.640000000     3.033000000
H     2.476000000     4.781000000     3.375000000
O    -3.665000000    -5.142000000     1.627000000
H    -3.620000000    -4.228000000     1.347000000
H    -3.417000000    -5.123000000     2.551000000
O    -2.271000000     4.242000000    -1.389000000
H    -2.179000000     4.944000000    -2.033000000
H    -1.408000000     4.176000000    -0.982000000
O    -0.314000000     2.073000000     4.457000000
H    -0.044000000     2.257000000     3.557000000
H     0.388000000     1.528000000     4.812000000
O     5.348000000     3.165000000     5.056000000
H     6.269000000     3.006000000     4.849000000
H     4.957000000     3.425000000     4.223000000
