144
-2823.28867
O    -4.620000000    -1.137000000    -2.819000000
H    -5.009000000    -1.900000000    -2.393000000
H    -4.139000000    -0.692000000    -2.120000000
O     2.574000000     3.868000000    -2.913000000
H     2.895000000     3.706000000    -2.026000000
H     1.728000000     3.421000000    -2.947000000
O     3.736000000    -1.859000000     3.095000000
H     2.952000000    -2.290000000     3.437000000
H     4.184000000    -2.540000000     2.595000000
O     5.179000000    -4.222000000     1.926000000
H     5.787000000    -4.961000000     1.890000000
H     4.508000000    -4.495000000     2.551000000
O     0.925000000     5.688000000     0.914000000
H     1.831000000     5.519000000     1.175000000
H     0.991000000     6.377000000     0.253000000
O    -5.741000000     1.072000000     0.384000000
H    -5.518000000     1.582000000     1.163000000
H    -6.686000000     0.934000000     0.451000000
O     2.551000000    -1.546000000    -3.809000000
H     2.618000000    -0.627000000    -3.550000000
H     1.729000000    -1.845000000    -3.421000000
O     3.471000000    -0.479000000     0.102000000
H     2.858000000    -1.052000000     0.563000000
H     4.292000000    -0.971000000     0.085000000
O     4.417000000    -3.970000000    -2.989000000
H     4.300000000    -4.417000000    -2.150000000
H     3.707000000    -3.329000000    -3.019000000
O    -2.888000000    -3.767000000    -1.499000000
H    -3.146000000    -2.959000000    -1.943000000
H    -3.187000000    -3.651000000    -0.597000000
O     1.793000000    -4.810000000    -4.555000000
H     1.641000000    -5.483000000    -3.891000000
H     1.387000000    -4.022000000    -4.195000000
O     0.147000000     6.201000000     3.601000000
H     0.412000000     5.965000000     2.711000000
H    -0.670000000     6.686000000     3.487000000
O    -3.467000000     2.841000000    -0.947000000
H    -3.828000000     3.055000000    -0.087000000
H    -3.417000000     1.885000000    -0.954000000
O     3.454000000    -5.020000000    -0.567000000
H     2.664000000    -4.488000000    -0.665000000
H     3.449000000    -5.289000000     0.351000000
O    -0.893000000    -4.537000000     0.242000000
H     0.029000000    -4.356000000     0.062000000
H    -1.364000000    -4.130000000    -0.485000000
O    -1.431000000    -1.522000000    -4.506000000
H    -0.958000000    -2.065000000    -5.137000000
H    -1.299000000    -1.960000000    -3.666000000
O     2.984000000     1.152000000    -3.443000000
H     3.376000000     0.858000000    -4.265000000
H     3.316000000     2.041000000    -3.323000000
O    -3.505000000    -0.089000000    -0.460000000
H    -2.984000000    -0.364000000     0.294000000
H    -4.297000000     0.290000000    -0.079000000
O    -4.966000000     2.434000000     2.570000000
H    -4.868000000     3.327000000     2.241000000
H    -4.186000000     2.290000000     3.106000000
O    -1.936000000    -6.699000000     1.232000000
H    -1.445000000    -5.923000000     0.962000000
H    -2.853000000    -6.463000000     1.089000000
O    -0.157000000     4.788000000     5.928000000
H    -0.269000000     3.851000000     5.766000000
H     0.031000000     5.159000000     5.066000000
O    -3.010000000     1.754000000    -3.680000000
H    -2.124000000     1.738000000    -4.042000000
H    -3.083000000     0.936000000    -3.189000000
O     3.269000000     4.362000000     1.658000000
H     4.182000000     4.209000000     1.900000000
H     3.093000000     3.719000000     0.971000000
O    -3.031000000     1.864000000     4.699000000
H    -3.730000000     2.324000000     5.164000000
H    -2.223000000     2.231000000     5.058000000
O    -0.232000000    -3.295000000    -6.257000000
H     0.350000000    -4.030000000    -6.452000000
H    -1.097000000    -3.595000000    -6.537000000
O    -0.723000000    -4.558000000     3.686000000
H    -0.706000000    -5.511000000     3.589000000
H    -1.652000000    -4.342000000     3.758000000
O     0.912000000     2.795000000    -5.175000000
H     0.322000000     3.519000000    -5.384000000
H     0.330000000     2.072000000    -4.938000000
O    -1.492000000     5.258000000    -0.109000000
H    -1.345000000     4.677000000    -0.856000000
H    -0.646000000     5.291000000     0.338000000
O    -3.036000000    -2.423000000     1.211000000
H    -3.273000000    -1.844000000     1.935000000
H    -2.160000000    -2.739000000     1.434000000
O     3.008000000     5.263000000     4.368000000
H     2.398000000     4.769000000     4.915000000
H     3.007000000     4.801000000     3.530000000
O     0.499000000    -5.844000000    -2.363000000
H     0.092000000    -4.980000000    -2.288000000
H     0.552000000    -6.162000000    -1.462000000
O     0.694000000     1.994000000     5.394000000
H     0.336000000     1.227000000     4.948000000
H     1.189000000     1.634000000     6.130000000
O     5.401000000     0.281000000     2.571000000
H     4.481000000     0.024000000     2.627000000
H     5.461000000     1.078000000     3.097000000
O     5.678000000    -2.416000000    -0.485000000
H     5.324000000    -3.268000000    -0.230000000
H     6.595000000    -2.591000000    -0.695000000
O     0.935000000    -7.327000000    -0.015000000
H     0.437000000    -7.049000000     0.754000000
H     1.630000000    -7.883000000     0.338000000
O     3.103000000    -2.902000000    -6.052000000
H     2.763000000    -3.666000000    -5.586000000
H     2.850000000    -2.157000000    -5.507000000
O     3.636000000    -1.049000000     6.094000000
H     3.720000000    -1.193000000     5.151000000
H     4.445000000    -0.599000000     6.340000000
O    -1.042000000     8.459000000     0.159000000
H    -0.454000000     8.410000000    -0.595000000
H    -1.293000000     7.551000000     0.326000000
O    -0.306000000    -7.668000000    -4.124000000
H    -1.018000000    -8.057000000    -3.616000000
H     0.057000000    -6.993000000    -3.551000000
O    -1.004000000     0.986000000    -5.474000000
H    -1.093000000     0.048000000    -5.305000000
H    -0.891000000     1.049000000    -6.422000000
O    -4.169000000     4.643000000     1.426000000
H    -4.250000000     5.490000000     1.864000000
H    -3.307000000     4.670000000     1.011000000
O    -0.982000000     3.635000000    -2.545000000
H    -1.027000000     3.956000000    -3.445000000
H    -1.808000000     3.169000000    -2.415000000
O     2.709000000     2.086000000     0.024000000
H     1.755000000     2.101000000     0.092000000
H     2.926000000     1.161000000    -0.100000000
O     1.343000000    -2.850000000     3.676000000
H     0.641000000    -3.421000000     3.365000000
H     0.913000000    -2.255000000     4.290000000
O    -3.653000000    -0.528000000     3.141000000
H    -3.419000000    -0.891000000     3.995000000
H    -3.823000000     0.398000000     3.313000000
O     0.823000000    -1.058000000     5.673000000
H     0.585000000    -1.394000000     6.537000000
H     1.774000000    -1.164000000     5.629000000
O     4.142000000    -6.846000000    -3.193000000
H     4.651000000    -7.178000000    -3.932000000
H     3.953000000    -5.936000000    -3.421000000
O    -4.017000000     5.378000000    -1.739000000
H    -3.208000000     5.842000000    -1.951000000
H    -3.738000000     4.653000000    -1.180000000
