144
-2812.81356
O    -6.343000000     1.490000000     0.415000000
H    -6.120000000     0.769000000     1.004000000
H    -5.536000000     1.999000000     0.344000000
O     4.736000000    -4.483000000    -1.183000000
H     5.219000000    -4.866000000    -0.451000000
H     5.167000000    -4.830000000    -1.963000000
O     5.073000000     5.025000000     0.467000000
H     4.658000000     4.304000000     0.941000000
H     5.684000000     4.598000000    -0.132000000
O    -3.562000000     3.018000000     1.030000000
H    -3.354000000     3.227000000     0.120000000
H    -3.898000000     3.837000000     1.393000000
O    -2.962000000     3.618000000    -1.826000000
H    -2.178000000     3.540000000    -2.370000000
H    -3.243000000     4.526000000    -1.940000000
O    -3.009000000    -1.803000000    -5.434000000
H    -3.312000000    -2.242000000    -4.639000000
H    -2.774000000    -0.921000000    -5.146000000
O     1.240000000     2.325000000     4.883000000
H     1.392000000     3.115000000     4.364000000
H     2.094000000     1.895000000     4.920000000
O     1.436000000    -2.184000000    -5.205000000
H     1.071000000    -1.380000000    -4.837000000
H     1.962000000    -2.555000000    -4.496000000
O     2.242000000     4.384000000     3.277000000
H     2.971000000     4.014000000     2.779000000
H     2.658000000     4.951000000     3.926000000
O     2.149000000    -3.813000000    -3.011000000
H     1.632000000    -4.204000000    -2.307000000
H     2.929000000    -4.365000000    -3.069000000
O     1.285000000    -6.973000000     3.188000000
H     0.619000000    -6.293000000     3.287000000
H     1.489000000    -7.241000000     4.084000000
O    -5.791000000    -0.903000000    -1.324000000
H    -5.189000000    -0.368000000    -1.840000000
H    -5.711000000    -0.562000000    -0.433000000
O     1.233000000    -6.523000000    -0.235000000
H     0.563000000    -6.551000000    -0.917000000
H     1.288000000    -5.598000000     0.009000000
O     3.069000000    -7.577000000    -1.802000000
H     3.417000000    -8.374000000    -1.404000000
H     2.597000000    -7.141000000    -1.093000000
O    -0.820000000    -5.606000000    -2.503000000
H    -0.957000000    -4.804000000    -2.000000000
H    -0.604000000    -5.302000000    -3.385000000
O     2.381000000     1.502000000    -2.267000000
H     2.173000000     0.897000000    -1.555000000
H     3.326000000     1.636000000    -2.200000000
O     4.391000000     2.700000000     1.445000000
H     4.594000000     1.955000000     0.879000000
H     4.454000000     2.349000000     2.334000000
O     0.753000000     5.718000000    -2.104000000
H     0.916000000     5.726000000    -1.160000000
H     1.307000000     6.419000000    -2.448000000
O    -2.926000000    -4.441000000     0.280000000
H    -3.671000000    -4.775000000    -0.219000000
H    -2.311000000    -4.132000000    -0.385000000
O    -2.363000000    -6.643000000    -4.924000000
H    -2.603000000    -7.520000000    -4.627000000
H    -1.873000000    -6.268000000    -4.192000000
O    -3.396000000    -2.449000000     2.104000000
H    -2.554000000    -2.038000000     2.298000000
H    -3.186000000    -3.143000000     1.479000000
O     0.742000000    -0.006000000    -3.991000000
H     1.036000000     0.531000000    -4.727000000
H     1.125000000     0.415000000    -3.221000000
O    -4.963000000     1.841000000     3.122000000
H    -4.312000000     2.123000000     2.479000000
H    -4.514000000     1.172000000     3.639000000
O     2.310000000     6.085000000    -0.020000000
H     2.523000000     6.991000000    -0.240000000
H     3.108000000     5.741000000     0.381000000
O     4.237000000     1.487000000     4.147000000
H     3.978000000     1.023000000     4.943000000
H     4.759000000     0.850000000     3.658000000
O     3.990000000    -6.192000000     2.571000000
H     3.132000000    -6.600000000     2.690000000
H     3.872000000    -5.598000000     1.830000000
O    -0.475000000    -4.896000000     2.398000000
H    -1.214000000    -5.423000000     2.096000000
H    -0.099000000    -4.530000000     1.597000000
O     4.815000000     0.202000000    -0.135000000
H     4.108000000    -0.428000000    -0.275000000
H     5.534000000    -0.120000000    -0.678000000
O     2.998000000    -4.031000000     1.054000000
H     2.090000000    -3.960000000     0.760000000
H     3.506000000    -4.113000000     0.247000000
O     3.581000000    -1.463000000    -2.081000000
H     2.919000000    -2.001000000    -2.515000000
H     4.285000000    -2.075000000    -1.866000000
O    -4.142000000     5.652000000     1.705000000
H    -4.709000000     6.107000000     1.082000000
H    -4.728000000     5.392000000     2.416000000
O    -1.328000000    -0.945000000     2.874000000
H    -0.921000000    -0.918000000     3.741000000
H    -0.608000000    -0.772000000     2.267000000
O    -1.966000000     6.143000000     5.186000000
H    -2.040000000     5.586000000     4.411000000
H    -1.034000000     6.127000000     5.405000000
O     6.295000000     0.207000000     2.744000000
H     6.940000000    -0.499000000     2.787000000
H     6.268000000     0.451000000     1.819000000
O    -2.074000000     7.413000000     0.829000000
H    -1.259000000     7.211000000     1.289000000
H    -2.747000000     6.932000000     1.312000000
O    -1.900000000     4.290000000    -4.967000000
H    -1.990000000     4.170000000    -5.913000000
H    -1.547000000     3.458000000    -4.653000000
O     0.532000000     6.282000000     1.914000000
H     1.147000000     6.142000000     1.194000000
H     0.871000000     5.739000000     2.627000000
O    -0.157000000     3.192000000    -2.838000000
H     0.512000000     2.570000000    -2.555000000
H     0.177000000     4.046000000    -2.562000000
O    -2.489000000     2.068000000     5.781000000
H    -1.745000000     2.352000000     5.250000000
H    -2.890000000     1.362000000     5.274000000
O    -2.291000000     0.990000000    -4.635000000
H    -1.631000000     1.166000000    -3.965000000
H    -1.891000000     1.289000000    -5.451000000
O     3.522000000    -2.607000000     3.534000000
H     3.319000000    -2.938000000     2.660000000
H     4.282000000    -2.040000000     3.405000000
O    -1.494000000     4.282000000     3.337000000
H    -0.858000000     4.805000000     2.848000000
H    -1.597000000     3.484000000     2.819000000
O    -3.155000000    -2.796000000    -2.892000000
H    -3.820000000    -3.450000000    -2.674000000
H    -2.441000000    -2.968000000    -2.279000000
O    -0.078000000    -3.956000000     5.335000000
H    -0.079000000    -3.712000000     4.409000000
H     0.849000000    -3.994000000     5.571000000
O    -4.396000000    -5.256000000    -1.995000000
H    -5.149000000    -5.098000000    -2.564000000
H    -4.255000000    -6.202000000    -2.041000000
O     2.563000000    -4.273000000     5.281000000
H     2.988000000    -3.589000000     4.764000000
H     2.971000000    -5.086000000     4.982000000
O    -0.315000000    -4.416000000    -4.737000000
H    -0.842000000    -3.998000000    -5.417000000
H     0.273000000    -3.726000000    -4.431000000
O    -4.483000000     1.195000000    -2.855000000
H    -3.920000000     1.919000000    -2.579000000
H    -4.103000000     0.898000000    -3.682000000
