144
-2782.76257
O    -3.127000000    -0.572000000    -6.743000000
H    -3.188000000    -1.517000000    -6.607000000
H    -2.189000000    -0.383000000    -6.702000000
O     3.490000000    -1.646000000     6.288000000
H     4.100000000    -2.377000000     6.388000000
H     3.052000000    -1.811000000     5.453000000
O    -5.760000000     0.159000000    -0.935000000
H    -5.448000000    -0.236000000    -1.749000000
H    -5.064000000     0.766000000    -0.681000000
O    -0.765000000     3.287000000    -2.563000000
H    -0.085000000     2.832000000    -3.060000000
H    -0.478000000     4.200000000    -2.544000000
O    -3.997000000    -3.118000000    -6.208000000
H    -3.340000000    -3.536000000    -5.650000000
H    -4.587000000    -3.829000000    -6.457000000
O    -1.822000000     4.301000000     2.466000000
H    -1.273000000     4.469000000     3.232000000
H    -2.557000000     4.907000000     2.562000000
O    -1.191000000    -4.133000000    -7.897000000
H    -0.976000000    -3.628000000    -7.113000000
H    -0.950000000    -3.559000000    -8.625000000
O     3.871000000     4.870000000     2.705000000
H     3.921000000     4.140000000     2.087000000
H     4.560000000     5.471000000     2.422000000
O    -6.848000000     2.951000000    -1.324000000
H    -7.220000000     2.267000000    -1.880000000
H    -6.024000000     2.580000000    -1.008000000
O     0.611000000    -4.667000000    -2.725000000
H     1.268000000    -4.692000000    -3.421000000
H     0.248000000    -3.782000000    -2.770000000
O     1.644000000    -6.570000000    -5.226000000
H     0.998000000    -5.937000000    -4.913000000
H     2.137000000    -6.816000000    -4.443000000
O    -6.242000000    -1.746000000    -5.379000000
H    -5.522000000    -2.200000000    -5.817000000
H    -5.852000000    -1.396000000    -4.578000000
O    -1.219000000    -5.836000000    -5.666000000
H    -1.571000000    -5.305000000    -4.951000000
H    -1.366000000    -5.308000000    -6.450000000
O    -1.614000000    -5.575000000    -1.784000000
H    -1.346000000    -6.467000000    -1.561000000
H    -0.898000000    -5.238000000    -2.323000000
O     0.492000000     2.800000000     5.867000000
H     0.243000000     1.945000000     5.515000000
H     1.448000000     2.803000000     5.833000000
O     2.556000000    -3.391000000    -4.242000000
H     3.340000000    -3.519000000    -4.776000000
H     2.213000000    -2.542000000    -4.519000000
O     4.143000000    -0.802000000    -1.791000000
H     3.319000000    -0.384000000    -1.540000000
H     4.308000000    -0.489000000    -2.680000000
O    -3.342000000     0.071000000     3.495000000
H    -2.757000000    -0.355000000     2.869000000
H    -4.149000000     0.223000000     3.004000000
O     3.648000000     2.760000000     0.668000000
H     2.995000000     2.344000000     0.105000000
H     4.036000000     2.036000000     1.160000000
O     4.123000000     5.065000000    -0.911000000
H     3.835000000     4.305000000    -0.404000000
H     3.464000000     5.735000000    -0.732000000
O    -1.213000000    -2.208000000     4.251000000
H    -1.360000000    -1.908000000     3.354000000
H    -1.328000000    -1.423000000     4.788000000
O    -5.708000000     2.024000000    -4.843000000
H    -5.120000000     1.503000000    -4.295000000
H    -5.309000000     1.999000000    -5.713000000
O     3.919000000    -6.053000000    -0.068000000
H     3.037000000    -6.426000000    -0.066000000
H     3.783000000    -5.118000000    -0.220000000
O     3.148000000     2.657000000     4.677000000
H     3.464000000     1.945000000     4.120000000
H     2.904000000     3.350000000     4.064000000
O     0.691000000    -1.434000000     7.817000000
H     0.905000000    -0.562000000     7.486000000
H     1.019000000    -1.437000000     8.716000000
O    -2.285000000    -1.749000000     1.626000000
H    -1.485000000    -1.527000000     1.150000000
H    -2.547000000    -2.599000000     1.272000000
O    -3.512000000     2.124000000     5.209000000
H    -3.766000000     3.031000000     5.039000000
H    -3.687000000     1.669000000     4.385000000
O    -3.109000000    -3.713000000    -0.305000000
H    -3.520000000    -3.273000000    -1.049000000
H    -2.605000000    -4.426000000    -0.697000000
O     6.767000000    -0.632000000    -0.687000000
H     5.832000000    -0.801000000    -0.804000000
H     6.836000000     0.322000000    -0.655000000
O    -4.883000000    -1.031000000    -3.225000000
H    -4.987000000    -1.933000000    -2.922000000
H    -3.961000000    -0.968000000    -3.476000000
O     1.731000000    -4.748000000     2.262000000
H     1.600000000    -5.084000000     1.376000000
H     2.384000000    -5.333000000     2.646000000
O    -1.075000000     6.858000000     0.447000000
H    -0.670000000     6.513000000    -0.348000000
H    -1.477000000     7.682000000     0.174000000
O     3.660000000    -3.360000000    -1.460000000
H     2.990000000    -3.509000000    -2.127000000
H     4.055000000    -2.522000000    -1.701000000
O     1.821000000    -1.014000000    -6.104000000
H     2.229000000    -0.443000000    -5.452000000
H     2.494000000    -1.662000000    -6.309000000
O     2.505000000     0.759000000     7.212000000
H     3.159000000     1.441000000     7.364000000
H     2.999000000     0.036000000     6.824000000
O     2.042000000     1.467000000    -1.503000000
H     1.755000000     2.011000000    -2.236000000
H     1.231000000     1.122000000    -1.129000000
O     1.570000000    -2.441000000     3.978000000
H     1.663000000    -3.263000000     3.496000000
H     0.639000000    -2.394000000     4.192000000
O     5.277000000    -0.110000000     3.497000000
H     5.803000000     0.312000000     2.818000000
H     5.209000000    -1.022000000     3.214000000
O    -0.640000000     4.875000000     4.869000000
H    -1.335000000     4.625000000     5.478000000
H     0.017000000     4.186000000     4.960000000
O    -0.450000000    -2.357000000    -5.646000000
H     0.438000000    -2.039000000    -5.806000000
H    -0.565000000    -2.279000000    -4.699000000
O    -2.644000000     1.643000000    -3.944000000
H    -2.084000000     2.102000000    -3.318000000
H    -2.742000000     0.764000000    -3.579000000
O    -5.287000000    -3.853000000    -2.261000000
H    -5.649000000    -4.073000000    -1.402000000
H    -5.981000000    -4.083000000    -2.879000000
O     5.287000000    -2.863000000     2.713000000
H     5.892000000    -3.202000000     2.053000000
H     4.421000000    -3.124000000     2.400000000
O    -1.303000000     0.361000000     5.805000000
H    -1.582000000     0.534000000     6.704000000
H    -2.026000000     0.680000000     5.264000000
O    -4.237000000     2.169000000    -0.190000000
H    -3.766000000     2.759000000    -0.779000000
H    -4.282000000     2.645000000     0.639000000
O    -2.415000000    -3.973000000    -3.894000000
H    -2.975000000    -4.006000000    -3.118000000
H    -1.719000000    -3.359000000    -3.660000000
O    -2.634000000     3.234000000    -6.195000000
H    -2.686000000     2.781000000    -5.354000000
H    -2.783000000     4.155000000    -5.982000000
O    -2.300000000     4.367000000    -0.596000000
H    -1.636000000     3.927000000    -1.126000000
H    -1.899000000     4.452000000     0.269000000
