144
-2819.08308
O    -5.517000000    -3.418000000     3.315000000
H    -4.934000000    -2.708000000     3.046000000
H    -6.369000000    -3.182000000     2.949000000
O     2.438000000     1.274000000     5.322000000
H     2.644000000     2.039000000     4.785000000
H     1.483000000     1.210000000     5.291000000
O    -5.187000000     0.702000000     1.085000000
H    -4.777000000    -0.120000000     1.357000000
H    -5.974000000     0.432000000     0.613000000
O    -2.238000000     2.122000000    -3.617000000
H    -1.738000000     1.305000000    -3.604000000
H    -1.587000000     2.803000000    -3.447000000
O    -1.122000000     1.644000000     4.247000000
H    -0.883000000     0.854000000     3.762000000
H    -0.435000000     2.275000000     4.032000000
O    -0.224000000    -1.717000000    -3.540000000
H    -1.180000000    -1.765000000    -3.568000000
H    -0.037000000    -0.815000000    -3.278000000
O     4.373000000    -0.487000000     3.157000000
H     4.974000000    -0.428000000     3.900000000
H     3.948000000     0.369000000     3.124000000
O     1.226000000    -3.763000000    -2.603000000
H     0.427000000    -3.975000000    -2.120000000
H     0.943000000    -3.141000000    -3.273000000
O     0.889000000    -7.773000000     1.770000000
H     0.704000000    -7.061000000     1.158000000
H     1.808000000    -7.990000000     1.614000000
O    -7.376000000    -1.230000000     0.916000000
H    -7.367000000    -1.104000000    -0.033000000
H    -6.971000000    -2.088000000     1.047000000
O     0.742000000    -4.856000000     3.267000000
H    -0.110000000    -5.117000000     2.917000000
H     1.288000000    -4.725000000     2.492000000
O     0.614000000    -5.777000000     0.121000000
H     0.835000000    -6.103000000    -0.752000000
H     0.090000000    -4.993000000    -0.042000000
O     4.580000000     2.773000000    -3.774000000
H     3.734000000     3.181000000    -3.588000000
H     5.210000000     3.292000000    -3.274000000
O     2.448000000     4.178000000    -2.410000000
H     2.600000000     3.913000000    -1.504000000
H     2.069000000     5.055000000    -2.342000000
O    -3.985000000     4.421000000    -2.988000000
H    -4.774000000     4.037000000    -2.604000000
H    -3.325000000     3.732000000    -2.919000000
O    -3.104000000    -6.168000000    -0.635000000
H    -2.643000000    -6.784000000    -1.206000000
H    -2.573000000    -5.372000000    -0.664000000
O     0.067000000    -6.943000000    -2.244000000
H    -0.358000000    -7.798000000    -2.298000000
H     0.978000000    -7.112000000    -2.483000000
O     4.141000000     3.390000000     1.346000000
H     5.041000000     3.068000000     1.402000000
H     4.219000000     4.245000000     0.924000000
O    -3.846000000    -1.411000000     2.182000000
H    -2.934000000    -1.251000000     2.423000000
H    -3.797000000    -2.016000000     1.443000000
O     2.954000000    -0.143000000    -3.437000000
H     3.118000000    -0.932000000    -2.921000000
H     3.496000000     0.530000000    -3.025000000
O    -2.120000000    -4.110000000     2.250000000
H    -2.687000000    -4.880000000     2.221000000
H    -2.367000000    -3.601000000     1.478000000
O     0.578000000     6.584000000    -2.668000000
H    -0.358000000     6.784000000    -2.697000000
H     0.985000000     7.269000000    -3.198000000
O     2.526000000    -5.506000000    -4.615000000
H     3.474000000    -5.381000000    -4.595000000
H     2.218000000    -5.135000000    -3.788000000
O     6.001000000    -0.115000000     0.409000000
H     5.898000000    -1.002000000     0.064000000
H     5.689000000    -0.171000000     1.312000000
O     5.051000000     5.858000000     0.452000000
H     5.768000000     6.096000000     1.040000000
H     5.274000000     6.276000000    -0.379000000
O     2.824000000     3.324000000     3.653000000
H     3.005000000     4.229000000     3.907000000
H     3.300000000     3.206000000     2.831000000
O    -4.825000000    -5.866000000     1.652000000
H    -5.038000000    -4.959000000     1.870000000
H    -4.933000000    -5.916000000     0.702000000
O     5.698000000    -2.795000000    -0.506000000
H     4.830000000    -2.867000000    -0.904000000
H     5.664000000    -3.381000000     0.250000000
O     6.784000000     0.694000000    -2.239000000
H     6.241000000     0.777000000    -1.455000000
H     7.232000000     1.536000000    -2.311000000
O    -1.122000000    -1.409000000     3.125000000
H    -0.297000000    -0.980000000     2.900000000
H    -0.980000000    -2.331000000     2.910000000
O    -4.144000000     2.247000000     3.343000000
H    -4.387000000     1.883000000     2.492000000
H    -3.257000000     1.922000000     3.499000000
O    -5.735000000    -5.618000000    -1.068000000
H    -6.107000000    -6.105000000    -1.803000000
H    -4.802000000    -5.832000000    -1.086000000
O     4.725000000    -4.346000000     1.358000000
H     5.360000000    -4.692000000     1.985000000
H     4.273000000    -5.120000000     1.022000000
O    -5.347000000    -3.237000000     0.133000000
H    -5.693000000    -4.000000000    -0.331000000
H    -4.410000000    -3.241000000    -0.065000000
O    -0.037000000     4.043000000    -3.632000000
H    -0.173000000     4.975000000    -3.457000000
H     0.799000000     3.840000000    -3.214000000
O     3.624000000    -2.664000000    -2.256000000
H     3.820000000    -2.914000000    -3.159000000
H     2.957000000    -3.290000000    -1.973000000
O    -6.838000000     0.118000000    -1.672000000
H    -5.991000000     0.377000000    -2.034000000
H    -7.386000000    -0.049000000    -2.439000000
O     0.099000000     1.044000000    -2.843000000
H     0.860000000     0.797000000    -3.369000000
H     0.436000000     1.104000000    -1.949000000
O     1.408000000    -0.799000000     3.392000000
H     2.008000000    -1.352000000     2.892000000
H     1.974000000    -0.313000000     3.992000000
O     2.643000000    -2.427000000     1.713000000
H     3.284000000    -1.719000000     1.650000000
H     3.134000000    -3.216000000     1.486000000
O     0.185000000     4.225000000     4.012000000
H     0.844000000     3.802000000     3.462000000
H     0.618000000     4.341000000     4.858000000
O    -2.838000000    -2.029000000    -3.362000000
H    -3.483000000    -2.424000000    -3.948000000
H    -3.063000000    -2.367000000    -2.495000000
O     3.147000000     6.084000000     3.696000000
H     3.280000000     6.473000000     4.561000000
H     2.428000000     6.587000000     3.315000000
O    -2.118000000    -1.941000000     5.526000000
H    -2.449000000    -1.068000000     5.736000000
H    -1.678000000    -1.834000000     4.682000000
O    -4.275000000    -5.215000000    -3.859000000
H    -3.327000000    -5.280000000    -3.746000000
H    -4.442000000    -4.277000000    -3.950000000
O    -1.783000000    -4.929000000    -3.184000000
H    -1.035000000    -5.526000000    -3.217000000
H    -1.572000000    -4.320000000    -2.477000000
O    -4.851000000     0.996000000    -3.423000000
H    -3.900000000     1.056000000    -3.327000000
H    -4.983000000     0.732000000    -4.334000000
O     0.199000000     6.925000000     4.186000000
H    -0.055000000     6.039000000     3.928000000
H    -0.145000000     7.023000000     5.074000000
