144
-2824.69702
O     4.237000000    -3.585000000    -0.886000000
H     3.902000000    -3.762000000    -0.008000000
H     3.453000000    -3.492000000    -1.428000000
O    -5.722000000    -2.761000000     2.448000000
H    -5.327000000    -1.889000000     2.450000000
H    -4.985000000    -3.358000000     2.581000000
O     0.096000000    -0.525000000     3.288000000
H    -0.565000000     0.117000000     3.547000000
H     0.545000000    -0.122000000     2.545000000
O    -8.088000000    -1.672000000     0.873000000
H    -7.449000000    -2.339000000     1.123000000
H    -7.640000000    -1.146000000     0.210000000
O     3.487000000     2.438000000     4.981000000
H     2.988000000     2.831000000     5.698000000
H     3.292000000     1.503000000     5.038000000
O    -0.423000000    -4.566000000    -3.787000000
H    -1.190000000    -4.603000000    -3.216000000
H    -0.783000000    -4.429000000    -4.663000000
O    -1.546000000     0.725000000    -4.412000000
H    -2.404000000     0.837000000    -4.002000000
H    -1.136000000     1.588000000    -4.349000000
O     2.042000000    -3.534000000    -2.653000000
H     1.470000000    -3.727000000    -3.396000000
H     2.351000000    -2.643000000    -2.814000000
O    -3.674000000    -4.556000000     2.621000000
H    -3.730000000    -5.474000000     2.887000000
H    -2.956000000    -4.534000000     1.988000000
O    -4.383000000     2.996000000     2.009000000
H    -4.726000000     3.889000000     2.050000000
H    -3.747000000     2.951000000     2.723000000
O    -1.419000000    -1.757000000    -5.974000000
H    -1.723000000    -1.022000000    -5.441000000
H    -0.465000000    -1.719000000    -5.910000000
O    -2.670000000     6.523000000     0.007000000
H    -1.880000000     7.056000000    -0.092000000
H    -2.360000000     5.620000000    -0.062000000
O     2.635000000    -0.583000000    -2.702000000
H     2.211000000     0.076000000    -2.152000000
H     3.446000000    -0.165000000    -2.993000000
O    -6.452000000     0.294000000    -0.036000000
H    -6.224000000     0.543000000     0.860000000
H    -5.611000000     0.227000000    -0.488000000
O     4.473000000    -2.043000000     2.436000000
H     4.751000000    -2.693000000     3.081000000
H     3.822000000    -2.498000000     1.902000000
O     2.427000000     4.067000000     2.340000000
H     1.474000000     4.039000000     2.432000000
H     2.744000000     3.375000000     2.920000000
O     1.477000000    -1.415000000    -5.067000000
H     1.950000000    -1.121000000    -4.288000000
H     1.651000000    -2.356000000    -5.111000000
O     4.941000000     3.795000000    -2.686000000
H     4.058000000     3.512000000    -2.925000000
H     5.170000000     3.253000000    -1.931000000
O    -4.610000000     0.358000000    -6.241000000
H    -3.845000000     0.576000000    -6.773000000
H    -4.245000000     0.072000000    -5.403000000
O     5.065000000    -2.482000000    -3.453000000
H     5.067000000    -2.998000000    -2.647000000
H     5.047000000    -1.573000000    -3.155000000
O    -2.494000000    -4.072000000     0.108000000
H    -2.613000000    -3.396000000    -0.560000000
H    -3.001000000    -4.818000000    -0.213000000
O     6.246000000     2.278000000     4.302000000
H     6.219000000     1.327000000     4.410000000
H     5.346000000     2.563000000     4.458000000
O     0.155000000    -4.818000000     1.833000000
H     0.376000000    -4.507000000     0.955000000
H    -0.234000000    -4.058000000     2.265000000
O     0.971000000    -5.217000000    -0.796000000
H     0.475000000    -5.911000000    -1.230000000
H     1.267000000    -4.651000000    -1.509000000
O     6.030000000     0.303000000     1.568000000
H     6.471000000    -0.250000000     0.924000000
H     5.393000000    -0.277000000     1.985000000
O     5.727000000     2.183000000    -0.706000000
H     6.667000000     2.332000000    -0.606000000
H     5.451000000     1.821000000     0.136000000
O    -4.260000000     2.912000000    -0.605000000
H    -4.331000000     3.190000000     0.308000000
H    -3.888000000     2.031000000    -0.558000000
O    -1.120000000    -2.981000000     3.411000000
H    -1.795000000    -2.838000000     2.748000000
H    -0.668000000    -2.140000000     3.478000000
O    -0.594000000     4.025000000     2.096000000
H    -1.070000000     4.562000000     2.729000000
H    -0.687000000     4.494000000     1.267000000
O    -7.027000000     0.793000000    -2.810000000
H    -7.820000000     1.284000000    -3.026000000
H    -7.036000000     0.734000000    -1.854000000
O    -6.914000000    -5.097000000    -0.993000000
H    -6.187000000    -4.532000000    -0.733000000
H    -7.667000000    -4.509000000    -1.047000000
O    -6.603000000    -2.110000000    -3.138000000
H    -6.492000000    -1.167000000    -3.256000000
H    -6.440000000    -2.255000000    -2.205000000
O     3.339000000    -5.928000000    -3.053000000
H     4.115000000    -5.721000000    -3.573000000
H     2.963000000    -5.075000000    -2.834000000
O     3.685000000    -0.398000000     5.266000000
H     3.336000000    -1.243000000     4.982000000
H     4.107000000    -0.583000000     6.105000000
O    -3.912000000    -0.449000000     2.205000000
H    -3.392000000     0.215000000     2.657000000
H    -3.933000000    -0.157000000     1.293000000
O     3.276000000    -4.444000000     1.278000000
H     2.565000000    -4.898000000     0.825000000
H     3.598000000    -5.080000000     1.917000000
O    -1.627000000     3.643000000    -3.881000000
H    -2.481000000     3.494000000    -4.286000000
H    -1.488000000     4.587000000    -3.956000000
O    -2.008000000     1.644000000     3.408000000
H    -1.540000000     1.630000000     4.243000000
H    -1.454000000     2.172000000     2.832000000
O    -6.458000000     1.228000000     2.509000000
H    -5.751000000     1.802000000     2.803000000
H    -7.259000000     1.670000000     2.790000000
O    -1.266000000     4.134000000    -0.572000000
H    -0.955000000     4.379000000    -1.444000000
H    -1.430000000     3.193000000    -0.633000000
O    -4.197000000     0.930000000    -3.312000000
H    -5.127000000     1.088000000    -3.152000000
H    -3.832000000     0.752000000    -2.445000000
O    -5.484000000    -2.875000000    -0.470000000
H    -5.424000000    -3.152000000     0.445000000
H    -4.688000000    -2.364000000    -0.618000000
O    -5.635000000     4.495000000    -2.681000000
H    -5.832000000     3.958000000    -3.448000000
H    -5.185000000     3.900000000    -2.081000000
O     7.103000000    -1.619000000     0.020000000
H     7.085000000    -2.484000000     0.429000000
H     7.458000000    -1.776000000    -0.855000000
O    -3.487000000    -3.234000000    -3.382000000
H    -4.428000000    -3.082000000    -3.468000000
H    -3.189000000    -2.553000000    -2.778000000
O    -7.632000000     3.160000000    -1.429000000
H    -6.938000000     3.168000000    -0.770000000
H    -7.597000000     4.030000000    -1.825000000
O    -3.103000000    -6.038000000    -3.089000000
H    -3.531000000    -6.218000000    -2.252000000
H    -3.273000000    -5.110000000    -3.250000000
O     5.083000000     0.362000000    -2.870000000
H     5.227000000     1.042000000    -2.211000000
H     5.409000000     0.746000000    -3.684000000
