144
-2801.11049
O     4.343000000     4.811000000    -0.048000000
H     4.995000000     5.454000000    -0.325000000
H     4.443000000     4.087000000    -0.667000000
O    -0.594000000    -2.018000000     4.426000000
H     0.219000000    -2.236000000     4.882000000
H    -0.475000000    -1.112000000     4.143000000
O     4.282000000    -1.957000000     4.657000000
H     5.136000000    -2.387000000     4.621000000
H     4.439000000    -1.081000000     4.304000000
O    -2.551000000    -3.815000000    -1.595000000
H    -2.904000000    -2.948000000    -1.795000000
H    -1.654000000    -3.648000000    -1.307000000
O    -1.443000000     1.805000000    -4.711000000
H    -1.718000000     1.374000000    -3.901000000
H    -1.101000000     1.096000000    -5.255000000
O     1.147000000    -2.701000000    -1.350000000
H     0.760000000    -2.113000000    -0.701000000
H     1.666000000    -2.127000000    -1.914000000
O    -5.841000000    -3.008000000     3.103000000
H    -6.436000000    -2.785000000     2.387000000
H    -4.967000000    -2.935000000     2.721000000
O     2.805000000     4.578000000     3.944000000
H     3.261000000     4.139000000     4.662000000
H     2.236000000     3.904000000     3.573000000
O    -7.155000000     2.281000000    -0.785000000
H    -6.415000000     2.854000000    -0.987000000
H    -6.755000000     1.495000000    -0.412000000
O     0.074000000    -0.057000000    -5.882000000
H     0.231000000    -0.993000000    -5.755000000
H     0.924000000     0.352000000    -5.718000000
O    -0.092000000     1.267000000     4.637000000
H     0.217000000     1.654000000     3.818000000
H    -0.886000000     1.757000000     4.848000000
O    -7.787000000    -1.789000000    -1.186000000
H    -7.839000000    -2.123000000    -0.291000000
H    -8.672000000    -1.902000000    -1.535000000
O     5.238000000    -2.491000000    -0.038000000
H     4.492000000    -2.839000000     0.451000000
H     5.572000000    -1.779000000     0.509000000
O     2.225000000    -0.706000000    -3.039000000
H     2.356000000     0.227000000    -3.206000000
H     2.211000000    -1.106000000    -3.908000000
O    -5.693000000     0.179000000     0.462000000
H    -6.416000000    -0.444000000     0.544000000
H    -5.045000000    -0.276000000    -0.075000000
O     6.286000000    -0.693000000     1.827000000
H     6.544000000    -1.067000000     2.670000000
H     6.677000000     0.180000000     1.823000000
O    -3.329000000     2.897000000     1.622000000
H    -2.516000000     3.291000000     1.936000000
H    -3.174000000     2.737000000     0.691000000
O     3.770000000     2.862000000     5.943000000
H     3.296000000     2.416000000     6.645000000
H     4.615000000     3.088000000     6.331000000
O     2.587000000     2.206000000    -3.338000000
H     2.169000000     2.626000000    -2.586000000
H     3.496000000     2.504000000    -3.305000000
O     4.181000000     0.647000000     4.285000000
H     4.251000000     1.110000000     3.450000000
H     3.918000000     1.321000000     4.911000000
O    -4.808000000     0.904000000     2.950000000
H    -5.059000000     0.314000000     2.240000000
H    -4.131000000     1.463000000     2.570000000
O     3.329000000    -3.299000000     2.301000000
H     2.706000000    -4.002000000     2.481000000
H     3.767000000    -3.147000000     3.139000000
O    -3.714000000    -3.096000000     1.229000000
H    -3.709000000    -2.616000000     0.401000000
H    -4.018000000    -3.973000000     0.996000000
O     4.644000000     2.518000000     2.161000000
H     4.335000000     3.111000000     1.476000000
H     5.121000000     3.082000000     2.770000000
O    -1.593000000    -6.631000000     0.986000000
H    -1.516000000    -5.677000000     1.020000000
H    -2.261000000    -6.840000000     1.639000000
O    -2.621000000    -2.270000000     6.190000000
H    -2.054000000    -2.523000000     6.918000000
H    -2.029000000    -2.189000000     5.442000000
O     0.909000000    -5.179000000    -0.217000000
H     1.811000000    -5.331000000     0.068000000
H     0.937000000    -4.329000000    -0.656000000
O     5.873000000     1.457000000    -0.344000000
H     6.737000000     1.563000000     0.055000000
H     5.282000000     1.325000000     0.398000000
O    -3.091000000     3.068000000    -0.934000000
H    -3.713000000     3.484000000    -1.531000000
H    -2.922000000     2.211000000    -1.325000000
O    -1.202000000    -3.933000000     2.267000000
H    -2.128000000    -3.822000000     2.052000000
H    -0.991000000    -3.179000000     2.817000000
O     1.219000000    -0.100000000     6.807000000
H     0.875000000     0.247000000     5.984000000
H     1.306000000     0.668000000     7.372000000
O    -5.784000000    -2.683000000    -5.514000000
H    -6.656000000    -2.363000000    -5.749000000
H    -5.792000000    -2.721000000    -4.558000000
O     2.557000000     1.075000000    -5.710000000
H     2.401000000     1.581000000    -4.913000000
H     2.509000000     1.719000000    -6.417000000
O     0.953000000     2.843000000     2.489000000
H     0.324000000     3.423000000     2.059000000
H     1.285000000     2.286000000     1.786000000
O    -5.868000000    -4.231000000    -1.265000000
H    -5.260000000    -4.849000000    -1.671000000
H    -5.983000000    -3.543000000    -1.921000000
O     0.554000000    -5.028000000     5.409000000
H     0.769000000    -4.095000000     5.407000000
H     1.019000000    -5.383000000     4.652000000
O    -0.305000000     4.335000000    -3.665000000
H     0.229000000     4.501000000    -4.442000000
H    -0.800000000     3.545000000    -3.879000000
O     1.930000000    -5.579000000     2.756000000
H     2.216000000    -6.491000000     2.808000000
H     1.067000000    -5.623000000     2.344000000
O     1.791000000    -2.611000000     5.608000000
H     1.648000000    -2.113000000     6.413000000
H     2.494000000    -2.143000000     5.158000000
O    -8.052000000     1.463000000    -3.616000000
H    -7.710000000     1.711000000    -4.475000000
H    -7.297000000     1.528000000    -3.031000000
O    -2.028000000     5.871000000    -0.686000000
H    -1.602000000     6.365000000    -1.387000000
H    -2.166000000     4.999000000    -1.057000000
O    -5.245000000     1.181000000    -3.331000000
H    -5.704000000     0.346000000    -3.250000000
H    -4.396000000     1.030000000    -2.914000000
O    -5.577000000    -2.105000000    -2.676000000
H    -6.344000000    -1.790000000    -2.198000000
H    -4.831000000    -1.786000000    -2.169000000
O    -5.077000000     4.444000000    -2.134000000
H    -5.260000000     5.377000000    -2.239000000
H    -5.218000000     4.073000000    -3.005000000
O    -2.722000000    -2.211000000    -5.670000000
H    -3.497000000    -1.972000000    -5.160000000
H    -2.914000000    -1.901000000    -6.555000000
O    -5.383000000     3.528000000    -4.669000000
H    -5.257000000     2.722000000    -4.168000000
H    -4.611000000     3.581000000    -5.233000000
O    -4.059000000    -5.656000000    -2.810000000
H    -3.837000000    -5.511000000    -3.730000000
H    -3.419000000    -5.136000000    -2.324000000
O     6.777000000     0.894000000    -2.916000000
H     7.411000000     1.606000000    -2.822000000
H     6.323000000     0.865000000    -2.074000000
