144
-2836.95125
O     1.001000000     2.029000000    -3.670000000
H     0.107000000     1.715000000    -3.808000000
H     0.947000000     2.974000000    -3.809000000
O    -5.318000000     4.399000000     0.889000000
H    -5.335000000     5.346000000     0.748000000
H    -4.932000000     4.045000000     0.088000000
O     5.398000000    -2.431000000     0.492000000
H     6.350000000    -2.448000000     0.590000000
H     5.140000000    -3.353000000     0.497000000
O     2.271000000     1.494000000     4.154000000
H     2.912000000     1.413000000     3.448000000
H     2.787000000     1.754000000     4.918000000
O     1.785000000    -3.356000000     4.199000000
H     2.145000000    -3.766000000     4.985000000
H     2.100000000    -3.901000000     3.478000000
O    -3.870000000    -1.797000000     1.910000000
H    -2.970000000    -1.522000000     2.082000000
H    -3.825000000    -2.752000000     1.869000000
O    -0.989000000    -5.005000000     1.846000000
H    -1.591000000    -4.914000000     1.108000000
H    -1.452000000    -4.607000000     2.583000000
O     2.710000000     4.487000000    -1.148000000
H     2.140000000     4.080000000    -0.496000000
H     3.358000000     3.813000000    -1.354000000
O     4.028000000    -5.912000000     3.124000000
H     3.149000000    -5.650000000     2.848000000
H     3.880000000    -6.523000000     3.845000000
O    -0.104000000     6.265000000     0.270000000
H    -1.009000000     6.276000000    -0.043000000
H     0.021000000     5.379000000     0.609000000
O    -4.413000000    -0.189000000    -0.513000000
H    -4.196000000    -0.481000000     0.372000000
H    -4.065000000     0.701000000    -0.564000000
O    -1.490000000     4.653000000     2.975000000
H    -0.967000000     4.225000000     2.297000000
H    -2.201000000     4.038000000     3.153000000
O    -3.031000000    -4.167000000     0.326000000
H    -2.745000000    -4.857000000    -0.272000000
H    -3.192000000    -3.411000000    -0.240000000
O    -1.581000000    -1.764000000     3.472000000
H    -0.625000000    -1.733000000     3.425000000
H    -1.781000000    -2.676000000     3.687000000
O    -3.986000000    -2.621000000    -1.879000000
H    -4.921000000    -2.720000000    -1.701000000
H    -3.809000000    -1.693000000    -1.727000000
O    -2.060000000    -2.067000000    -5.390000000
H    -2.687000000    -1.366000000    -5.215000000
H    -2.572000000    -2.740000000    -5.838000000
O     4.967000000    -2.870000000    -4.226000000
H     4.759000000    -3.020000000    -5.148000000
H     4.366000000    -3.442000000    -3.749000000
O    -0.395000000     1.820000000     5.207000000
H    -0.842000000     1.827000000     4.361000000
H     0.533000000     1.736000000     4.987000000
O    -2.061000000     1.768000000    -4.357000000
H    -2.088000000     2.394000000    -3.634000000
H    -2.732000000     1.120000000    -4.138000000
O    -0.191000000     3.002000000    -6.321000000
H    -0.741000000     3.700000000    -6.676000000
H    -0.808000000     2.322000000    -6.053000000
O    -3.960000000     2.448000000    -1.017000000
H    -4.219000000     2.860000000    -1.841000000
H    -3.177000000     2.927000000    -0.745000000
O    -4.631000000     3.602000000    -3.231000000
H    -4.727000000     3.298000000    -4.133000000
H    -3.900000000     4.220000000    -3.263000000
O     0.396000000    -1.415000000    -6.236000000
H    -0.537000000    -1.223000000    -6.140000000
H     0.642000000    -1.824000000    -5.406000000
O     3.120000000     0.948000000    -0.567000000
H     2.265000000     0.517000000    -0.560000000
H     3.662000000     0.394000000    -1.129000000
O     0.943000000    -6.225000000    -0.820000000
H     1.132000000    -5.662000000    -0.070000000
H     0.938000000    -7.112000000    -0.460000000
O     4.490000000    -5.115000000     0.527000000
H     4.395000000    -5.530000000     1.384000000
H     4.999000000    -5.742000000     0.013000000
O     1.623000000    -5.694000000     2.337000000
H     0.749000000    -5.335000000     2.185000000
H     1.467000000    -6.595000000     2.618000000
O    -4.168000000    -0.135000000    -4.690000000
H    -4.670000000    -0.834000000    -4.270000000
H    -4.679000000     0.092000000    -5.467000000
O    -0.902000000    -0.627000000     6.031000000
H    -1.366000000    -1.038000000     5.302000000
H    -0.677000000     0.246000000     5.710000000
O     1.474000000    -1.754000000     6.451000000
H     1.837000000    -2.183000000     5.676000000
H     0.610000000    -1.450000000     6.172000000
O    -2.922000000    -4.419000000    -3.747000000
H    -3.119000000    -3.993000000    -4.581000000
H    -3.066000000    -3.738000000    -3.090000000
O     5.108000000    -0.865000000    -1.872000000
H     5.445000000    -1.370000000    -2.612000000
H     5.081000000    -1.491000000    -1.148000000
O     4.002000000     1.363000000     2.067000000
H     4.785000000     1.906000000     1.974000000
H     3.655000000     1.289000000     1.178000000
O     2.215000000    -6.264000000    -3.144000000
H     1.552000000    -6.023000000    -3.791000000
H     1.714000000    -6.480000000    -2.357000000
O     1.623000000     7.734000000    -1.210000000
H     1.852000000     8.155000000    -0.382000000
H     0.908000000     7.138000000    -0.987000000
O     4.216000000     6.569000000     0.293000000
H     3.474000000     6.258000000    -0.226000000
H     4.965000000     6.075000000    -0.041000000
O    -1.712000000    -5.877000000    -1.102000000
H    -1.844000000    -5.661000000    -2.026000000
H    -0.770000000    -6.025000000    -1.023000000
O     3.774000000    -4.330000000    -2.088000000
H     3.491000000    -5.144000000    -2.506000000
H     3.681000000    -4.498000000    -1.150000000
O     1.531000000    -2.433000000    -3.678000000
H     1.248000000    -3.264000000    -4.060000000
H     1.214000000    -2.465000000    -2.775000000
O     2.079000000     4.214000000     2.743000000
H     1.755000000     3.789000000     3.537000000
H     1.473000000     3.935000000     2.057000000
O     0.793000000     4.832000000    -2.994000000
H     1.220000000     5.422000000    -3.615000000
H     1.497000000     4.546000000    -2.412000000
O    -4.862000000     1.200000000     2.119000000
H    -4.833000000     1.620000000     1.259000000
H    -5.717000000     1.442000000     2.474000000
O     0.114000000    -4.804000000    -4.586000000
H    -0.075000000    -4.801000000    -5.525000000
H    -0.639000000    -5.244000000    -4.192000000
O     0.174000000     7.089000000     2.974000000
H    -0.231000000     7.148000000     2.108000000
H     0.133000000     6.159000000     3.195000000
O    -1.754000000     3.955000000    -2.789000000
H    -0.890000000     4.346000000    -2.915000000
H    -1.845000000     3.877000000    -1.839000000
O     2.798000000     0.079000000    -3.721000000
H     2.182000000     0.807000000    -3.635000000
H     2.242000000    -0.698000000    -3.783000000
O     4.654000000    -1.141000000     3.399000000
H     4.586000000    -1.927000000     2.856000000
H     4.329000000    -0.435000000     2.841000000
O    -3.120000000     2.559000000     4.167000000
H    -3.354000000     1.970000000     4.885000000
H    -3.370000000     2.083000000     3.375000000
