144
-2798.72313
O     6.040000000     1.614000000     0.382000000
H     5.610000000     1.446000000     1.220000000
H     5.345000000     1.956000000    -0.180000000
O    -7.995000000     0.558000000    -2.122000000
H    -7.091000000     0.838000000    -1.977000000
H    -8.373000000     1.244000000    -2.672000000
O     4.324000000    -3.782000000     4.458000000
H     3.531000000    -3.960000000     3.952000000
H     4.409000000    -4.536000000     5.042000000
O    -0.706000000     4.098000000     0.192000000
H    -1.563000000     3.756000000     0.447000000
H    -0.687000000     4.009000000    -0.761000000
O    -6.590000000     3.716000000    -1.033000000
H    -7.395000000     4.143000000    -1.327000000
H    -6.711000000     3.601000000    -0.090000000
O    -3.447000000     4.793000000     1.852000000
H    -2.529000000     5.058000000     1.910000000
H    -3.866000000     5.216000000     2.601000000
O     2.256000000    -4.840000000     2.754000000
H     1.791000000    -5.670000000     2.648000000
H     2.606000000    -4.649000000     1.883000000
O    -4.538000000    -1.193000000     3.245000000
H    -5.312000000    -0.966000000     3.760000000
H    -3.997000000    -0.404000000     3.265000000
O     6.772000000    -1.142000000     4.407000000
H     6.202000000    -1.454000000     3.704000000
H     7.190000000    -1.934000000     4.746000000
O     2.818000000     3.420000000    -5.527000000
H     2.051000000     3.445000000    -6.100000000
H     2.574000000     3.963000000    -4.777000000
O     3.545000000    -1.686000000    -3.504000000
H     3.562000000    -2.442000000    -4.091000000
H     4.461000000    -1.548000000    -3.264000000
O     0.552000000    -2.075000000    -2.470000000
H     1.364000000    -1.577000000    -2.377000000
H    -0.059000000    -1.463000000    -2.880000000
O     3.475000000    -4.888000000     0.055000000
H     3.062000000    -4.684000000    -0.784000000
H     4.327000000    -4.453000000     0.015000000
O     5.096000000    -1.953000000     2.319000000
H     5.305000000    -2.478000000     1.546000000
H     4.696000000    -2.574000000     2.928000000
O     1.774000000     0.135000000    -4.432000000
H     2.524000000    -0.404000000    -4.179000000
H     2.156000000     0.862000000    -4.923000000
O    -3.000000000     3.585000000    -6.657000000
H    -2.377000000     4.305000000    -6.751000000
H    -2.872000000     3.272000000    -5.762000000
O     5.833000000    -3.413000000     0.126000000
H     6.630000000    -3.940000000     0.176000000
H     6.011000000    -2.774000000    -0.564000000
O     4.512000000     1.335000000     2.738000000
H     4.091000000     0.948000000     3.506000000
H     4.320000000     2.271000000     2.807000000
O    -7.371000000    -2.388000000    -0.094000000
H    -6.898000000    -1.603000000     0.185000000
H    -6.714000000    -2.914000000    -0.549000000
O    -1.287000000    -1.736000000     5.255000000
H    -1.063000000    -2.352000000     4.557000000
H    -0.653000000    -1.025000000     5.159000000
O    -5.085000000     2.482000000     1.965000000
H    -5.511000000     3.305000000     1.725000000
H    -4.589000000     2.233000000     1.185000000
O     1.315000000     2.472000000     4.726000000
H     1.945000000     3.192000000     4.719000000
H     1.179000000     2.264000000     3.802000000
O    -2.352000000    -1.218000000    -3.156000000
H    -1.999000000    -2.006000000    -2.744000000
H    -3.021000000    -0.908000000    -2.546000000
O     6.685000000     1.149000000    -3.410000000
H     7.257000000     1.634000000    -2.816000000
H     5.799000000     1.390000000    -3.138000000
O     3.394000000    -0.744000000     4.262000000
H     3.590000000    -1.570000000     4.706000000
H     3.959000000    -0.747000000     3.490000000
O     4.572000000     2.474000000    -2.517000000
H     3.952000000     2.498000000    -3.246000000
H     4.631000000     3.383000000    -2.222000000
O     1.310000000     1.722000000     2.075000000
H     1.209000000     2.098000000     1.201000000
H     0.962000000     0.834000000     1.995000000
O    -1.679000000     1.886000000    -4.050000000
H    -1.943000000     2.018000000    -3.139000000
H    -2.258000000     1.194000000    -4.369000000
O    -1.729000000    -2.592000000    -0.582000000
H    -1.884000000    -3.360000000    -0.031000000
H    -1.276000000    -1.974000000    -0.009000000
O    -5.510000000     1.672000000    -2.500000000
H    -4.774000000     1.423000000    -1.941000000
H    -5.898000000     2.429000000    -2.062000000
O     5.355000000     0.913000000     5.571000000
H     5.973000000     0.230000000     5.310000000
H     4.494000000     0.506000000     5.474000000
O    -7.919000000     0.828000000     0.888000000
H    -8.061000000     0.673000000    -0.045000000
H    -6.967000000     0.865000000     0.983000000
O     0.854000000    -0.099000000     5.245000000
H     1.542000000    -0.412000000     4.657000000
H     1.010000000     0.843000000     5.316000000
O     3.841000000    -7.151000000     1.608000000
H     3.607000000    -6.311000000     1.214000000
H     4.558000000    -6.943000000     2.208000000
O    -3.518000000     7.201000000    -2.740000000
H    -3.921000000     6.387000000    -2.440000000
H    -2.792000000     6.918000000    -3.296000000
O    -3.350000000    -3.528000000     3.992000000
H    -3.409000000    -2.583000000     3.851000000
H    -3.842000000    -3.910000000     3.265000000
O    -1.968000000    -4.708000000     1.466000000
H    -1.569000000    -5.577000000     1.430000000
H    -2.900000000    -4.865000000     1.315000000
O     6.186000000    -2.120000000    -2.557000000
H     6.891000000    -2.722000000    -2.793000000
H     6.536000000    -1.252000000    -2.754000000
O    -3.100000000     1.416000000     3.702000000
H    -2.395000000     2.041000000     3.532000000
H    -3.808000000     1.690000000     3.119000000
O    -5.239000000    -1.436000000    -3.330000000
H    -5.962000000    -2.007000000    -3.588000000
H    -5.647000000    -0.580000000    -3.194000000
O     2.838000000    -4.719000000    -2.757000000
H     1.893000000    -4.740000000    -2.602000000
H     2.923000000    -4.671000000    -3.709000000
O    -0.784000000     4.151000000    -2.824000000
H    -1.555000000     4.240000000    -2.263000000
H    -0.971000000     3.387000000    -3.369000000
O    -3.764000000     4.478000000    -1.789000000
H    -3.525000000     3.574000000    -1.993000000
H    -4.594000000     4.406000000    -1.319000000
O     1.152000000     5.945000000    -3.711000000
H     1.835000000     6.062000000    -3.051000000
H     0.715000000     5.131000000    -3.462000000
O    -0.250000000    -3.538000000     3.496000000
H    -0.979000000    -3.905000000     2.996000000
H     0.514000000    -4.038000000     3.207000000
O    -5.338000000    -0.785000000     0.522000000
H    -4.800000000    -0.078000000     0.165000000
H    -4.857000000    -1.085000000     1.293000000
O     0.074000000    -4.699000000    -2.609000000
H    -0.866000000    -4.843000000    -2.501000000
H     0.190000000    -3.760000000    -2.467000000
O    -5.303000000     1.630000000    -5.225000000
H    -5.819000000     2.436000000    -5.219000000
H    -5.088000000     1.476000000    -4.304000000
