144
-2784.79813
O     0.693000000    -0.783000000    -6.280000000
H     0.393000000    -0.020000000    -5.787000000
H    -0.055000000    -1.025000000    -6.826000000
O    -3.535000000     6.151000000    -2.327000000
H    -3.327000000     5.996000000    -1.405000000
H    -3.429000000     5.296000000    -2.743000000
O     0.834000000    -3.867000000    -6.363000000
H     0.654000000    -4.804000000    -6.446000000
H     0.127000000    -3.536000000    -5.809000000
O     2.948000000    -3.477000000     2.334000000
H     2.733000000    -4.396000000     2.174000000
H     2.803000000    -3.357000000     3.272000000
O     1.295000000     8.305000000    -2.075000000
H     1.013000000     7.829000000    -1.294000000
H     0.533000000     8.287000000    -2.655000000
O     3.816000000     2.431000000     2.829000000
H     4.295000000     1.677000000     2.487000000
H     3.851000000     2.328000000     3.780000000
O     2.523000000    -3.481000000     4.903000000
H     2.106000000    -2.696000000     5.258000000
H     1.908000000    -4.188000000     5.101000000
O     2.902000000     1.563000000    -1.206000000
H     3.316000000     0.750000000    -1.496000000
H     2.267000000     1.286000000    -0.546000000
O    -2.076000000    -3.755000000     5.181000000
H    -1.175000000    -4.040000000     5.336000000
H    -2.002000000    -3.088000000     4.498000000
O     3.360000000     5.594000000    -1.290000000
H     2.438000000     5.545000000    -1.036000000
H     3.556000000     4.727000000    -1.647000000
O     3.347000000     2.825000000     5.544000000
H     3.707000000     1.989000000     5.841000000
H     2.742000000     3.085000000     6.239000000
O     0.988000000     6.167000000    -0.176000000
H     0.595000000     5.295000000    -0.124000000
H     1.214000000     6.381000000     0.729000000
O    -3.829000000    -0.192000000    -0.738000000
H    -3.092000000    -0.039000000    -0.147000000
H    -3.882000000     0.605000000    -1.265000000
O    -2.891000000     5.167000000     0.194000000
H    -2.006000000     4.809000000     0.122000000
H    -3.397000000     4.471000000     0.615000000
O    -4.105000000    -3.483000000     2.644000000
H    -3.255000000    -3.920000000     2.607000000
H    -4.265000000    -3.193000000     1.746000000
O    -0.367000000     0.332000000     5.174000000
H    -0.438000000     1.262000000     4.959000000
H    -0.300000000    -0.106000000     4.325000000
O    -4.141000000    -3.080000000    -0.026000000
H    -4.846000000    -3.263000000    -0.647000000
H    -3.754000000    -2.262000000    -0.337000000
O    -4.302000000     6.255000000     2.274000000
H    -5.100000000     6.214000000     1.747000000
H    -3.592000000     6.142000000     1.643000000
O    -4.058000000    -2.544000000    -3.801000000
H    -3.438000000    -1.826000000    -3.678000000
H    -4.816000000    -2.136000000    -4.221000000
O    -1.053000000     6.051000000    -4.591000000
H    -0.594000000     5.253000000    -4.853000000
H    -1.632000000     5.772000000    -3.881000000
O    -0.214000000     2.852000000     3.873000000
H    -0.154000000     3.064000000     2.942000000
H     0.524000000     3.312000000     4.272000000
O    -0.699000000     1.394000000    -4.758000000
H    -0.192000000     1.643000000    -3.985000000
H    -0.801000000     2.209000000    -5.249000000
O    -3.923000000     2.542000000    -2.044000000
H    -4.449000000     2.648000000    -2.836000000
H    -3.023000000     2.694000000    -2.332000000
O    -1.631000000    -3.764000000    -4.649000000
H    -2.336000000    -3.245000000    -4.263000000
H    -1.100000000    -4.041000000    -3.903000000
O     3.513000000    -0.755000000    -2.198000000
H     2.761000000    -1.130000000    -2.657000000
H     3.980000000    -1.513000000    -1.846000000
O     6.658000000    -1.842000000    -1.093000000
H     6.375000000    -1.065000000    -0.609000000
H     5.986000000    -2.498000000    -0.905000000
O    -3.394000000    -6.317000000     0.543000000
H    -4.093000000    -6.324000000     1.197000000
H    -2.925000000    -7.139000000     0.685000000
O     2.290000000    -5.927000000     1.184000000
H     1.847000000    -5.734000000     0.359000000
H     1.580000000    -6.083000000     1.807000000
O    -0.158000000    -6.968000000     2.727000000
H     0.177000000    -7.666000000     2.165000000
H    -0.932000000    -7.346000000     3.144000000
O    -2.699000000    -0.269000000    -4.544000000
H    -2.056000000     0.429000000    -4.668000000
H    -3.501000000     0.071000000    -4.941000000
O     5.103000000     4.625000000     2.028000000
H     4.455000000     3.922000000     1.971000000
H     5.928000000     4.175000000     2.209000000
O    -2.349000000    -4.767000000    -2.098000000
H    -3.109000000    -5.343000000    -2.179000000
H    -2.619000000    -4.102000000    -1.464000000
O     3.900000000    -3.062000000    -0.587000000
H     3.548000000    -3.822000000    -1.051000000
H     3.728000000    -3.245000000     0.336000000
O     4.350000000    -0.629000000     1.269000000
H     3.766000000    -1.346000000     1.021000000
H     4.396000000    -0.077000000     0.489000000
O    -1.431000000     8.013000000    -0.190000000
H    -1.020000000     7.803000000    -1.028000000
H    -0.747000000     8.463000000     0.306000000
O    -1.582000000    -4.621000000     2.347000000
H    -1.743000000    -4.558000000     1.406000000
H    -1.028000000    -5.396000000     2.444000000
O     3.017000000    -5.691000000    -1.882000000
H     3.929000000    -5.710000000    -2.174000000
H     2.829000000    -6.593000000    -1.622000000
O     0.987000000    -5.181000000    -3.543000000
H     0.597000000    -6.004000000    -3.247000000
H     1.700000000    -5.018000000    -2.924000000
O     3.037000000     7.142000000     3.579000000
H     3.245000000     7.469000000     2.704000000
H     3.030000000     6.189000000     3.483000000
O     2.057000000     4.637000000     2.968000000
H     2.665000000     3.910000000     3.103000000
H     1.541000000     4.380000000     2.204000000
O     1.044000000     2.694000000    -3.259000000
H     1.579000000     3.366000000    -3.680000000
H     1.393000000     2.632000000    -2.370000000
O    -3.961000000     2.725000000     0.570000000
H    -4.917000000     2.706000000     0.527000000
H    -3.676000000     2.436000000    -0.297000000
O    -0.659000000    -7.399000000    -2.314000000
H    -1.264000000    -8.075000000    -2.619000000
H    -1.223000000    -6.666000000    -2.068000000
O    -0.233000000     6.053000000     2.893000000
H     0.622000000     5.700000000     3.142000000
H    -0.379000000     5.724000000     2.006000000
O    -1.642000000     3.629000000    -2.860000000
H    -0.919000000     3.382000000    -3.437000000
H    -1.267000000     3.602000000    -1.980000000
O     1.583000000    -1.973000000    -3.887000000
H     1.357000000    -1.567000000    -4.724000000
H     1.183000000    -2.841000000    -3.925000000
O     5.585000000    -1.588000000     3.537000000
H     6.065000000    -2.298000000     3.111000000
H     4.962000000    -1.288000000     2.875000000
O    -3.243000000     2.509000000     3.437000000
H    -2.301000000     2.353000000     3.372000000
H    -3.515000000     2.702000000     2.539000000
