144
-2811.80813
O     3.134000000     4.937000000    -1.717000000
H     3.307000000     5.056000000    -0.783000000
H     3.684000000     5.591000000    -2.147000000
O    -8.201000000    -1.515000000    -1.504000000
H    -7.501000000    -0.909000000    -1.263000000
H    -8.633000000    -1.723000000    -0.675000000
O     4.508000000    -0.833000000     3.591000000
H     4.990000000    -0.623000000     2.791000000
H     5.015000000    -0.422000000     4.291000000
O     0.799000000     3.366000000     2.386000000
H     1.608000000     2.857000000     2.339000000
H     1.048000000     4.239000000     2.082000000
O     1.589000000    -0.356000000     3.537000000
H     2.537000000    -0.481000000     3.572000000
H     1.477000000     0.584000000     3.393000000
O    -1.976000000    -3.981000000     0.368000000
H    -2.097000000    -4.832000000     0.790000000
H    -1.052000000    -3.774000000     0.508000000
O     5.534000000     1.334000000    -3.190000000
H     5.124000000     1.682000000    -3.982000000
H     5.670000000     2.101000000    -2.634000000
O     6.401000000    -0.715000000    -1.595000000
H     5.757000000    -1.418000000    -1.682000000
H     6.087000000    -0.029000000    -2.184000000
O     0.112000000    -1.210000000    -2.768000000
H     0.065000000    -0.667000000    -3.555000000
H     0.251000000    -0.587000000    -2.055000000
O     2.362000000    -3.561000000    -2.587000000
H     2.656000000    -2.716000000    -2.929000000
H     1.434000000    -3.431000000    -2.392000000
O    -1.863000000    -0.060000000     6.360000000
H    -2.811000000    -0.188000000     6.393000000
H    -1.644000000    -0.131000000     5.431000000
O     1.396000000    -0.262000000     6.592000000
H     0.991000000    -1.055000000     6.942000000
H     1.139000000    -0.248000000     5.670000000
O     4.145000000    -3.498000000     4.388000000
H     4.997000000    -3.837000000     4.113000000
H     4.034000000    -2.691000000     3.885000000
O     4.127000000     2.306000000    -5.507000000
H     3.425000000     1.800000000    -5.098000000
H     4.060000000     2.099000000    -6.439000000
O    -0.736000000     0.331000000    -4.866000000
H    -0.898000000     0.040000000    -5.763000000
H    -0.383000000     1.215000000    -4.960000000
O     1.729000000    -5.273000000     1.888000000
H     1.622000000    -5.865000000     1.144000000
H     2.058000000    -5.831000000     2.593000000
O    -0.283000000     3.567000000    -5.615000000
H     0.500000000     3.686000000    -5.077000000
H     0.050000000     3.251000000    -6.455000000
O    -0.504000000     6.222000000    -0.674000000
H     0.361000000     5.957000000    -0.363000000
H    -0.776000000     5.515000000    -1.258000000
O    -6.201000000    -3.718000000    -1.797000000
H    -6.791000000    -2.987000000    -1.983000000
H    -5.847000000    -3.524000000    -0.929000000
O    -0.579000000     1.885000000     4.172000000
H    -0.092000000     2.431000000     3.555000000
H    -0.179000000     2.069000000     5.022000000
O    -5.625000000     2.416000000     1.286000000
H    -5.506000000     3.326000000     1.013000000
H    -5.067000000     1.913000000     0.693000000
O     4.004000000     4.201000000     0.974000000
H     4.669000000     4.518000000     1.586000000
H     3.821000000     3.306000000     1.261000000
O    -4.003000000    -2.912000000     4.098000000
H    -4.378000000    -3.786000000     3.989000000
H    -3.059000000    -3.043000000     4.010000000
O    -0.803000000     4.262000000    -2.531000000
H    -1.385000000     4.612000000    -3.205000000
H    -1.327000000     3.597000000    -2.083000000
O     6.010000000     3.237000000    -1.054000000
H     5.186000000     3.622000000    -0.755000000
H     6.292000000     2.680000000    -0.328000000
O    -7.393000000     0.613000000     2.563000000
H    -6.630000000     1.168000000     2.400000000
H    -7.049000000    -0.280000000     2.534000000
O    -0.394000000    -3.766000000    -2.000000000
H    -0.337000000    -2.941000000    -2.483000000
H    -1.134000000    -3.646000000    -1.406000000
O    -3.596000000     3.326000000    -1.894000000
H    -4.120000000     3.973000000    -1.422000000
H    -3.679000000     2.526000000    -1.375000000
O     3.571000000    -1.652000000    -4.012000000
H     4.404000000    -1.578000000    -3.546000000
H     3.808000000    -1.593000000    -4.938000000
O    -6.311000000     0.273000000    -1.087000000
H    -6.787000000     0.997000000    -0.681000000
H    -5.553000000     0.136000000    -0.518000000
O     3.325000000     1.945000000     2.582000000
H     4.143000000     1.448000000     2.586000000
H     3.181000000     2.177000000     3.500000000
O     5.804000000    -3.085000000     1.624000000
H     5.035000000    -3.271000000     1.086000000
H     5.935000000    -2.141000000     1.537000000
O    -2.418000000     4.673000000    -4.602000000
H    -2.839000000     3.819000000    -4.508000000
H    -1.614000000     4.492000000    -5.088000000
O    -4.242000000     4.766000000     0.282000000
H    -3.349000000     4.431000000     0.369000000
H    -4.136000000     5.715000000     0.215000000
O    -4.567000000    -3.155000000     0.244000000
H    -4.555000000    -2.211000000     0.087000000
H    -3.644000000    -3.400000000     0.301000000
O     5.854000000    -5.829000000    -0.617000000
H     5.325000000    -5.032000000    -0.650000000
H     6.727000000    -5.549000000    -0.893000000
O    -4.119000000     1.846000000     4.082000000
H    -4.436000000     2.177000000     3.242000000
H    -3.315000000     1.375000000     3.867000000
O     5.820000000    -0.221000000     1.264000000
H     5.303000000    -0.154000000     0.461000000
H     6.341000000     0.581000000     1.282000000
O     3.531000000    -3.642000000     0.272000000
H     2.977000000    -4.037000000     0.945000000
H     3.004000000    -3.683000000    -0.526000000
O    -5.360000000     2.593000000    -4.187000000
H    -4.796000000     2.295000000    -4.901000000
H    -4.766000000     2.711000000    -3.446000000
O     5.285000000    -3.199000000    -2.008000000
H     5.747000000    -3.623000000    -2.730000000
H     4.593000000    -3.817000000    -1.770000000
O    -1.981000000     3.708000000     0.780000000
H    -1.216000000     3.597000000     1.345000000
H    -2.343000000     2.826000000     0.691000000
O     1.725000000     3.504000000    -3.568000000
H     2.427000000     3.702000000    -2.948000000
H     0.931000000     3.824000000    -3.141000000
O    -7.864000000     1.651000000    -3.204000000
H    -7.187000000     2.016000000    -3.774000000
H    -7.394000000     1.041000000    -2.635000000
O    -1.662000000    -3.833000000     3.560000000
H    -1.494000000    -4.505000000     2.900000000
H    -0.800000000    -3.462000000     3.749000000
O     0.703000000    -2.721000000     4.304000000
H     1.452000000    -3.034000000     4.811000000
H     0.987000000    -1.878000000     3.952000000
O    -6.114000000    -1.859000000     3.145000000
H    -5.922000000    -2.134000000     2.248000000
H    -5.481000000    -2.335000000     3.682000000
O    -3.148000000    -2.221000000    -3.077000000
H    -3.480000000    -1.935000000    -2.226000000
H    -2.301000000    -1.784000000    -3.163000000
