144
-2824.82005
O     3.379000000     4.315000000     0.641000000
H     3.619000000     3.843000000     1.438000000
H     3.064000000     5.164000000     0.950000000
O     8.275000000     0.700000000    -0.785000000
H     7.499000000     0.952000000    -1.285000000
H     8.012000000     0.796000000     0.131000000
O    -8.043000000    -1.741000000    -0.513000000
H    -7.401000000    -1.220000000    -0.031000000
H    -8.864000000    -1.259000000    -0.418000000
O     1.257000000     3.820000000     2.920000000
H     1.689000000     4.002000000     3.755000000
H     1.746000000     3.084000000     2.553000000
O     6.949000000     3.879000000     1.310000000
H     6.904000000     2.939000000     1.136000000
H     7.886000000     4.069000000     1.360000000
O     5.493000000     5.008000000    -1.008000000
H     4.653000000     4.857000000    -0.576000000
H     6.145000000     4.859000000    -0.323000000
O     5.768000000    -0.309000000     0.714000000
H     5.450000000    -1.147000000     0.380000000
H     4.981000000     0.230000000     0.798000000
O     0.214000000    -0.422000000    -2.952000000
H    -0.320000000    -1.192000000    -3.143000000
H     0.011000000    -0.209000000    -2.041000000
O     1.552000000    -4.772000000    -2.861000000
H     0.748000000    -4.357000000    -2.548000000
H     1.929000000    -5.183000000    -2.083000000
O     0.044000000    -0.390000000     4.976000000
H    -0.645000000    -0.464000000     4.316000000
H     0.573000000     0.353000000     4.688000000
O     1.413000000     6.148000000    -0.869000000
H     1.998000000     5.514000000    -1.284000000
H     1.327000000     5.840000000     0.033000000
O    -2.924000000    -4.169000000    -0.437000000
H    -3.088000000    -3.575000000     0.296000000
H    -3.086000000    -3.636000000    -1.216000000
O    -2.804000000     3.403000000    -4.575000000
H    -3.045000000     3.695000000    -3.696000000
H    -2.647000000     4.212000000    -5.062000000
O    -6.770000000    -4.108000000    -0.835000000
H    -6.101000000    -3.541000000    -1.219000000
H    -7.465000000    -3.508000000    -0.564000000
O    -0.843000000     2.810000000     4.531000000
H    -0.272000000     2.364000000     5.157000000
H    -0.242000000     3.273000000     3.946000000
O     3.892000000     1.858000000    -3.327000000
H     4.630000000     2.462000000    -3.414000000
H     4.295000000     1.015000000    -3.120000000
O    -3.421000000     2.864000000     3.913000000
H    -3.447000000     2.907000000     2.957000000
H    -2.501000000     2.703000000     4.121000000
O     3.799000000     2.683000000     2.851000000
H     3.763000000     1.726000000     2.827000000
H     4.222000000     2.886000000     3.685000000
O    -4.044000000    -5.902000000     1.172000000
H    -3.415000000    -5.629000000     0.504000000
H    -3.752000000    -6.775000000     1.433000000
O    -2.107000000     4.728000000    -2.345000000
H    -1.985000000     5.668000000    -2.474000000
H    -1.489000000     4.498000000    -1.651000000
O     7.710000000     1.246000000     2.109000000
H     6.935000000     0.686000000     2.066000000
H     7.744000000     1.540000000     3.019000000
O     4.587000000    -0.806000000    -3.571000000
H     5.126000000    -1.429000000    -3.083000000
H     3.698000000    -1.154000000    -3.501000000
O    -2.402000000     0.862000000    -4.171000000
H    -2.532000000     1.794000000    -4.348000000
H    -1.581000000     0.825000000    -3.680000000
O     2.920000000     4.448000000    -2.663000000
H     2.997000000     3.494000000    -2.638000000
H     3.713000000     4.740000000    -3.113000000
O     0.001000000    -4.117000000     3.335000000
H     0.593000000    -3.807000000     4.021000000
H     0.107000000    -5.069000000     3.340000000
O    -4.512000000     2.446000000     1.102000000
H    -4.104000000     1.624000000     0.831000000
H    -4.617000000     2.941000000     0.290000000
O    -6.627000000     1.998000000     2.612000000
H    -5.794000000     2.468000000     2.593000000
H    -6.489000000     1.243000000     2.040000000
O     1.763000000     1.020000000    -4.816000000
H     1.301000000     0.548000000    -4.123000000
H     2.535000000     1.385000000    -4.383000000
O    -6.143000000    -0.947000000     1.305000000
H    -5.893000000    -1.651000000     1.904000000
H    -5.317000000    -0.660000000     0.916000000
O     4.100000000    -0.078000000     3.344000000
H     3.418000000    -0.673000000     3.033000000
H     4.827000000    -0.652000000     3.583000000
O     6.541000000     0.341000000    -5.434000000
H     7.071000000    -0.428000000    -5.224000000
H     5.717000000     0.198000000    -4.969000000
O    -4.460000000     4.021000000    -1.205000000
H    -5.146000000     4.430000000    -1.735000000
H    -3.642000000     4.297000000    -1.619000000
O    -5.135000000    -3.476000000     2.261000000
H    -4.569000000    -2.715000000     2.132000000
H    -4.662000000    -4.198000000     1.845000000
O     3.389000000    -5.117000000     1.065000000
H     3.688000000    -4.376000000     0.537000000
H     3.356000000    -4.775000000     1.959000000
O     2.002000000    -1.773000000     2.843000000
H     1.262000000    -2.220000000     2.431000000
H     2.044000000    -2.141000000     3.725000000
O    -3.300000000    -1.944000000    -2.919000000
H    -4.200000000    -2.266000000    -2.879000000
H    -3.386000000    -0.991000000    -2.918000000
O    -6.055000000    -2.306000000    -2.975000000
H    -6.922000000    -2.618000000    -2.717000000
H    -6.066000000    -1.371000000    -2.769000000
O     2.462000000    -2.252000000    -2.921000000
H     1.698000000    -1.835000000    -3.318000000
H     2.249000000    -3.185000000    -2.912000000
O    -0.747000000     4.865000000     0.867000000
H    -0.138000000     4.178000000     1.135000000
H    -0.837000000     5.422000000     1.641000000
O    -3.678000000     6.111000000     0.553000000
H    -3.942000000     5.202000000     0.407000000
H    -3.008000000     6.059000000     1.234000000
O    -7.068000000    -3.583000000     4.061000000
H    -6.288000000    -3.572000000     3.506000000
H    -7.752000000    -3.185000000     3.523000000
O    -0.841000000    -2.998000000    -2.769000000
H    -1.020000000    -3.425000000    -3.607000000
H    -1.668000000    -2.579000000    -2.533000000
O    -1.762000000    -1.986000000     3.378000000
H    -2.279000000    -2.036000000     2.574000000
H    -1.175000000    -2.741000000     3.332000000
O     4.211000000    -2.725000000    -0.574000000
H     3.503000000    -2.473000000    -1.167000000
H     4.951000000    -2.914000000    -1.151000000
O    -3.258000000    -3.949000000     5.762000000
H    -3.351000000    -3.856000000     4.814000000
H    -3.138000000    -3.053000000     6.079000000
O    -5.983000000    -0.003000000    -1.890000000
H    -5.327000000    -0.009000000    -1.193000000
H    -5.837000000     0.824000000    -2.349000000
O    -5.604000000     2.112000000    -3.535000000
H    -4.701000000     2.390000000    -3.684000000
H    -6.055000000     2.314000000    -4.355000000
O     6.190000000     3.214000000    -3.399000000
H     6.041000000     3.736000000    -2.611000000
H     7.098000000     2.921000000    -3.324000000
