144
-2807.15992
O     6.755000000     2.187000000     0.391000000
H     5.800000000     2.164000000     0.453000000
H     7.049000000     1.484000000     0.970000000
O    -2.670000000     3.377000000     4.960000000
H    -3.432000000     2.970000000     4.548000000
H    -1.920000000     3.009000000     4.493000000
O     4.153000000    -4.234000000     1.524000000
H     3.284000000    -4.372000000     1.148000000
H     3.986000000    -3.816000000     2.368000000
O     1.172000000     4.204000000    -0.878000000
H     1.519000000     4.248000000     0.014000000
H     0.240000000     4.018000000    -0.763000000
O     1.033000000     2.733000000     1.720000000
H     0.359000000     3.322000000     2.058000000
H     0.783000000     1.869000000     2.048000000
O     1.350000000    -4.503000000     1.350000000
H     1.442000000    -5.203000000     1.998000000
H     0.489000000    -4.652000000     0.959000000
O    -3.370000000    -3.416000000     3.010000000
H    -3.024000000    -3.268000000     2.129000000
H    -4.039000000    -2.741000000     3.121000000
O     7.842000000    -0.107000000     1.638000000
H     7.589000000    -0.993000000     1.376000000
H     8.785000000    -0.165000000     1.798000000
O     4.489000000     3.504000000    -4.577000000
H     3.904000000     3.734000000    -3.856000000
H     4.098000000     2.720000000    -4.962000000
O     3.506000000    -0.203000000    -3.261000000
H     4.355000000    -0.476000000    -3.610000000
H     3.697000000     0.589000000    -2.759000000
O     1.401000000    -0.357000000    -5.375000000
H     1.729000000    -0.332000000    -4.476000000
H     0.471000000    -0.143000000    -5.296000000
O     4.004000000    -3.889000000    -2.697000000
H     3.848000000    -3.956000000    -3.639000000
H     4.366000000    -3.011000000    -2.575000000
O     6.652000000    -2.437000000     0.844000000
H     6.901000000    -2.218000000    -0.054000000
H     6.908000000    -3.354000000     0.946000000
O     3.084000000     1.834000000    -6.214000000
H     3.323000000     0.958000000    -5.910000000
H     2.195000000     1.967000000    -5.886000000
O    -4.239000000     0.109000000     4.846000000
H    -4.152000000    -0.763000000     4.460000000
H    -3.986000000     0.708000000     4.144000000
O    -1.622000000     2.237000000    -6.485000000
H    -1.981000000     1.719000000    -5.764000000
H    -0.739000000     2.468000000    -6.197000000
O    -5.529000000     4.225000000     2.906000000
H    -5.561000000     4.609000000     2.030000000
H    -5.099000000     4.890000000     3.444000000
O     3.648000000     2.437000000     0.622000000
H     2.695000000     2.382000000     0.693000000
H     3.949000000     2.546000000     1.524000000
O     3.352000000    -3.337000000     4.190000000
H     2.411000000    -3.508000000     4.228000000
H     3.673000000    -3.572000000     5.061000000
O    -5.236000000    -3.585000000    -0.429000000
H    -4.527000000    -3.310000000     0.152000000
H    -5.652000000    -2.768000000    -0.704000000
O     1.646000000     0.322000000     5.912000000
H     2.057000000    -0.352000000     6.453000000
H     2.266000000     0.468000000     5.198000000
O    -3.788000000     2.046000000     2.625000000
H    -4.591000000     2.550000000     2.753000000
H    -3.663000000     2.030000000     1.676000000
O    -5.195000000     6.408000000    -2.188000000
H    -5.295000000     7.017000000    -2.920000000
H    -4.980000000     5.572000000    -2.600000000
O    -1.505000000    -0.597000000    -4.603000000
H    -1.983000000    -1.395000000    -4.378000000
H    -2.085000000     0.114000000    -4.330000000
O    -0.715000000     4.986000000     2.413000000
H    -1.059000000     5.301000000     3.249000000
H    -0.469000000     5.782000000     1.941000000
O    -5.547000000    -1.846000000     3.019000000
H    -6.032000000    -1.023000000     2.959000000
H    -6.019000000    -2.444000000     2.438000000
O     5.020000000    -1.128000000     2.812000000
H     4.459000000    -1.851000000     3.093000000
H     5.407000000    -1.431000000     1.990000000
O     4.186000000     2.095000000    -2.060000000
H     3.760000000     2.017000000    -1.207000000
H     4.345000000     3.034000000    -2.163000000
O    -6.921000000     0.878000000     2.038000000
H    -7.379000000     1.615000000     1.635000000
H    -6.090000000     0.824000000     1.565000000
O    -1.094000000    -2.464000000    -1.848000000
H    -0.393000000    -2.938000000    -2.296000000
H    -0.677000000    -1.662000000    -1.534000000
O    -5.272000000     2.999000000    -1.427000000
H    -4.328000000     2.879000000    -1.319000000
H    -5.630000000     2.878000000    -0.547000000
O    -5.906000000    -1.058000000    -0.805000000
H    -6.227000000    -0.744000000    -1.650000000
H    -5.125000000    -0.533000000    -0.635000000
O     3.196000000     1.019000000     3.647000000
H     4.089000000     0.732000000     3.454000000
H     3.261000000     1.971000000     3.719000000
O     6.237000000    -5.237000000     0.118000000
H     6.386000000    -4.728000000    -0.679000000
H     5.354000000    -4.992000000     0.396000000
O    -3.327000000     6.568000000     1.704000000
H    -3.290000000     6.557000000     2.660000000
H    -4.166000000     6.158000000     1.492000000
O    -0.793000000     0.507000000     4.590000000
H    -0.025000000     0.492000000     5.161000000
H    -1.538000000     0.449000000     5.189000000
O     3.477000000    -6.341000000    -1.586000000
H     2.850000000    -6.064000000    -0.918000000
H     3.671000000    -5.543000000    -2.078000000
O    -6.229000000     3.135000000    -4.062000000
H    -5.707000000     3.075000000    -3.262000000
H    -7.135000000     3.167000000    -3.756000000
O    -1.824000000    -2.139000000     5.187000000
H    -1.598000000    -2.844000000     4.580000000
H    -1.458000000    -1.351000000     4.786000000
O    -3.063000000     4.477000000    -2.898000000
H    -3.015000000     5.032000000    -2.119000000
H    -2.557000000     3.698000000    -2.668000000
O     0.826000000     3.236000000    -5.353000000
H     0.374000000     4.060000000    -5.537000000
H     1.387000000     3.434000000    -4.603000000
O    -1.627000000     4.744000000    -0.332000000
H    -2.061000000     3.891000000    -0.355000000
H    -1.688000000     5.019000000     0.583000000
O     2.225000000     4.496000000    -3.297000000
H     2.196000000     5.446000000    -3.181000000
H     1.832000000     4.145000000    -2.498000000
O    -0.006000000    -3.755000000     3.693000000
H    -0.309000000    -4.518000000     3.200000000
H     0.255000000    -3.125000000     3.021000000
O    -3.019000000    -2.295000000     0.567000000
H    -3.303000000    -1.382000000     0.538000000
H    -2.362000000    -2.364000000    -0.126000000
O     1.200000000    -3.568000000    -2.865000000
H     2.097000000    -3.578000000    -2.531000000
H     1.297000000    -3.625000000    -3.815000000
O    -3.006000000     1.867000000    -4.400000000
H    -3.184000000     2.807000000    -4.354000000
H    -3.741000000     1.461000000    -3.940000000
O    -5.667000000     5.585000000     0.704000000
H    -6.592000000     5.832000000     0.687000000
H    -5.373000000     5.698000000    -0.200000000
