144
-2773.71575
O     2.345000000     4.194000000    -2.386000000
H     1.784000000     4.803000000    -1.905000000
H     3.149000000     4.150000000    -1.869000000
O     5.341000000     0.431000000    -1.141000000
H     4.644000000     0.602000000    -1.774000000
H     5.242000000     1.119000000    -0.483000000
O     4.981000000    -2.565000000     2.614000000
H     5.110000000    -3.469000000     2.901000000
H     4.366000000    -2.198000000     3.249000000
O    -0.340000000     5.217000000     0.097000000
H    -0.571000000     6.018000000    -0.375000000
H     0.570000000     5.350000000     0.362000000
O    -5.609000000     2.246000000     3.571000000
H    -5.573000000     2.292000000     2.616000000
H    -4.696000000     2.151000000     3.841000000
O    -2.383000000    -3.032000000     2.451000000
H    -2.917000000    -2.890000000     1.670000000
H    -2.316000000    -2.168000000     2.856000000
O     3.169000000    -1.704000000    -2.603000000
H     3.730000000    -2.154000000    -1.971000000
H     3.736000000    -1.040000000    -2.996000000
O     0.766000000    -0.640000000    -3.227000000
H     1.615000000    -0.988000000    -2.955000000
H     0.433000000    -0.188000000    -2.451000000
O    -6.703000000     1.203000000    -5.025000000
H    -5.822000000     1.172000000    -5.398000000
H    -6.647000000     0.669000000    -4.233000000
O     4.635000000    -5.126000000     0.897000000
H     3.747000000    -5.473000000     0.984000000
H     4.524000000    -4.176000000     0.920000000
O    -4.319000000    -5.252000000     0.040000000
H    -4.790000000    -6.030000000     0.339000000
H    -3.399000000    -5.446000000     0.216000000
O     0.275000000     0.287000000    -5.844000000
H     0.434000000     0.248000000    -4.901000000
H    -0.470000000    -0.298000000    -5.985000000
O    -4.548000000     5.345000000    -4.207000000
H    -3.623000000     5.262000000    -3.976000000
H    -4.979000000     4.639000000    -3.725000000
O    -5.919000000     2.795000000     0.893000000
H    -6.546000000     2.558000000     0.210000000
H    -5.112000000     2.994000000     0.419000000
O     5.112000000    -2.373000000    -0.318000000
H     5.320000000    -2.777000000    -1.161000000
H     5.025000000    -1.440000000    -0.515000000
O     4.611000000     2.391000000     0.714000000
H     3.703000000     2.475000000     1.005000000
H     4.749000000     3.143000000     0.138000000
O    -5.530000000    -3.083000000    -1.201000000
H    -5.571000000    -3.993000000    -0.905000000
H    -4.616000000    -2.956000000    -1.457000000
O     7.025000000    -0.770000000     1.293000000
H     6.173000000    -1.122000000     1.037000000
H     7.386000000    -1.425000000     1.891000000
O    -4.571000000    -0.065000000     1.571000000
H    -5.174000000    -0.801000000     1.465000000
H    -4.413000000     0.245000000     0.679000000
O     2.095000000     2.285000000     3.895000000
H     2.440000000     3.042000000     4.368000000
H     2.155000000     2.532000000     2.972000000
O    -1.203000000     2.796000000    -6.172000000
H    -0.948000000     1.876000000    -6.106000000
H    -2.029000000     2.851000000    -5.692000000
O     5.712000000     1.115000000     3.005000000
H     6.172000000     0.471000000     2.467000000
H     5.311000000     1.712000000     2.373000000
O     4.126000000     0.298000000    -4.219000000
H     3.500000000     0.537000000    -4.903000000
H     4.775000000     1.002000000    -4.232000000
O     3.760000000    -2.851000000     6.182000000
H     2.844000000    -2.709000000     5.946000000
H     3.878000000    -2.357000000     6.994000000
O     1.622000000     2.686000000     1.389000000
H     1.320000000     3.457000000     0.908000000
H     1.222000000     1.947000000     0.932000000
O    -2.942000000     1.454000000    -4.462000000
H    -2.217000000     1.156000000    -3.913000000
H    -3.658000000     1.615000000    -3.848000000
O    -0.414000000    -3.836000000    -1.594000000
H     0.340000000    -4.343000000    -1.296000000
H    -0.152000000    -3.497000000    -2.450000000
O    -6.196000000    -0.536000000    -1.193000000
H    -6.032000000    -1.439000000    -0.920000000
H    -5.357000000    -0.092000000    -1.069000000
O    -7.990000000     0.763000000    -2.576000000
H    -8.136000000     1.647000000    -2.239000000
H    -7.272000000     0.420000000    -2.044000000
O    -3.261000000     1.688000000     4.845000000
H    -2.626000000     1.216000000     4.305000000
H    -2.748000000     2.019000000     5.582000000
O    -5.843000000    -2.623000000     1.602000000
H    -5.644000000    -3.234000000     0.893000000
H    -5.796000000    -3.155000000     2.397000000
O     3.513000000     0.216000000     4.895000000
H     4.419000000     0.235000000     4.588000000
H     3.056000000     0.842000000     4.333000000
O    -2.804000000    -3.125000000     5.192000000
H    -3.584000000    -3.659000000     5.041000000
H    -2.323000000    -3.164000000     4.366000000
O    -4.220000000     6.838000000    -1.146000000
H    -4.288000000     5.908000000    -0.933000000
H    -3.295000000     6.968000000    -1.359000000
O    -1.084000000    -5.352000000     3.059000000
H    -1.394000000    -4.465000000     2.877000000
H    -1.451000000    -5.883000000     2.353000000
O    -0.751000000     1.773000000     3.346000000
H    -0.680000000     2.685000000     3.065000000
H     0.152000000     1.499000000     3.505000000
O     2.248000000     5.565000000     0.128000000
H     2.892000000     5.525000000     0.835000000
H     2.624000000     6.178000000    -0.504000000
O    -2.409000000    -0.253000000     3.065000000
H    -1.729000000     0.389000000     2.862000000
H    -3.174000000     0.043000000     2.570000000
O    -1.207000000     4.308000000    -2.448000000
H    -0.979000000     4.672000000    -1.593000000
H    -1.625000000     3.470000000    -2.248000000
O    -3.593000000     4.094000000     0.107000000
H    -3.213000000     3.559000000    -0.590000000
H    -2.890000000     4.182000000     0.752000000
O     5.163000000     3.763000000    -1.443000000
H     5.003000000     4.376000000    -2.160000000
H     5.903000000     4.139000000    -0.967000000
O     0.918000000    -2.751000000     5.993000000
H     0.537000000    -3.254000000     5.273000000
H     0.285000000    -2.052000000     6.159000000
O     0.418000000    -3.240000000    -3.958000000
H     0.325000000    -2.291000000    -3.873000000
H     1.223000000    -3.358000000    -4.462000000
O     2.363000000     3.095000000    -5.056000000
H     2.567000000     3.374000000    -4.163000000
H     1.440000000     3.321000000    -5.172000000
O     1.381000000    -4.162000000     3.632000000
H     0.516000000    -4.425000000     3.318000000
H     1.994000000    -4.610000000     3.049000000
O    -2.930000000    -2.284000000    -1.390000000
H    -2.837000000    -1.354000000    -1.185000000
H    -2.033000000    -2.618000000    -1.402000000
O    -5.040000000     2.862000000    -2.824000000
H    -5.840000000     2.755000000    -2.310000000
H    -4.331000000     2.736000000    -2.194000000
O    -1.086000000     5.942000000    -4.414000000
H    -1.291000000     5.282000000    -3.751000000
H    -0.491000000     6.548000000    -3.972000000
