144
-2806.27578
O     2.540000000     3.306000000    -3.045000000
H     1.612000000     3.341000000    -2.811000000
H     2.776000000     4.216000000    -3.225000000
O     3.093000000     1.822000000     0.041000000
H     2.814000000     2.696000000    -0.233000000
H     2.280000000     1.371000000     0.270000000
O     1.584000000     3.915000000    -0.047000000
H     1.116000000     3.663000000    -0.843000000
H     0.962000000     4.463000000     0.433000000
O     0.969000000     7.325000000    -3.611000000
H     1.823000000     7.044000000    -3.282000000
H     0.530000000     6.512000000    -3.862000000
O    -2.333000000     3.877000000     1.943000000
H    -2.501000000     3.139000000     2.530000000
H    -1.619000000     4.358000000     2.363000000
O     6.041000000    -2.019000000     1.045000000
H     6.134000000    -2.938000000     0.793000000
H     5.122000000    -1.933000000     1.298000000
O     1.265000000    -1.397000000     5.689000000
H     1.485000000    -0.841000000     6.437000000
H     1.051000000    -2.246000000     6.077000000
O    -1.654000000     8.258000000    -1.572000000
H    -2.362000000     8.336000000    -2.211000000
H    -0.965000000     7.781000000    -2.035000000
O    -1.158000000     4.655000000     4.679000000
H    -0.939000000     5.485000000     4.257000000
H    -1.621000000     4.907000000     5.478000000
O    -0.588000000    -5.184000000    -3.438000000
H    -0.380000000    -4.452000000    -4.019000000
H    -1.515000000    -5.360000000    -3.597000000
O     1.970000000    -4.272000000    -2.201000000
H     1.080000000    -4.444000000    -2.510000000
H     2.157000000    -3.380000000    -2.495000000
O     3.190000000    -1.152000000     0.807000000
H     2.934000000    -1.821000000     1.441000000
H     2.530000000    -1.209000000     0.117000000
O    -1.736000000     1.672000000    -7.441000000
H    -2.618000000     1.300000000    -7.453000000
H    -1.421000000     1.567000000    -8.339000000
O    -3.568000000    -2.954000000    -3.426000000
H    -3.914000000    -3.437000000    -4.177000000
H    -3.055000000    -2.245000000    -3.813000000
O     3.657000000    -2.376000000     4.674000000
H     2.893000000    -2.029000000     5.134000000
H     3.303000000    -2.738000000     3.862000000
O    -0.450000000     5.075000000    -4.000000000
H    -0.365000000     4.407000000    -4.680000000
H    -0.709000000     4.588000000    -3.218000000
O     4.672000000    -5.302000000    -2.235000000
H     5.115000000    -4.759000000    -2.887000000
H     3.766000000    -4.995000000    -2.242000000
O    -2.694000000     1.671000000     3.742000000
H    -3.258000000     1.909000000     4.478000000
H    -1.896000000     1.335000000     4.152000000
O     4.331000000     1.665000000    -4.691000000
H     3.505000000     1.938000000    -5.092000000
H     4.109000000     1.500000000    -3.775000000
O     3.760000000    -1.831000000    -2.878000000
H     3.901000000    -1.060000000    -2.328000000
H     3.525000000    -1.476000000    -3.734000000
O    -1.673000000    -0.516000000     5.571000000
H    -1.406000000     0.332000000     5.927000000
H    -0.854000000    -1.001000000     5.467000000
O    -4.564000000    -3.434000000    -0.386000000
H    -3.706000000    -3.012000000    -0.339000000
H    -4.479000000    -4.073000000    -1.093000000
O    -4.931000000     5.189000000    -1.190000000
H    -5.292000000     4.316000000    -1.348000000
H    -3.989000000     5.087000000    -1.323000000
O     5.099000000    -0.283000000     5.381000000
H     4.781000000    -1.102000000     5.002000000
H     5.651000000     0.099000000     4.699000000
O     0.499000000     4.858000000    -7.791000000
H     0.220000000     5.657000000    -7.344000000
H     0.468000000     4.181000000    -7.115000000
O     1.268000000    -7.978000000     0.868000000
H     0.506000000    -8.557000000     0.901000000
H     0.960000000    -7.156000000     1.251000000
O    -2.379000000    -4.429000000     3.824000000
H    -2.584000000    -4.860000000     2.994000000
H    -1.462000000    -4.648000000     3.988000000
O     4.294000000     0.840000000    -2.013000000
H     5.184000000     0.552000000    -1.808000000
H     3.987000000     1.256000000    -1.207000000
O     3.718000000     5.381000000     0.827000000
H     3.754000000     5.246000000     1.774000000
H     2.909000000     4.947000000     0.555000000
O     0.765000000     0.292000000    -5.343000000
H     0.443000000     0.915000000    -4.691000000
H     0.052000000    -0.339000000    -5.445000000
O     0.845000000    -2.766000000    -4.298000000
H     1.671000000    -2.406000000    -4.620000000
H     0.301000000    -2.855000000    -5.080000000
O    -5.834000000     0.049000000     3.010000000
H    -5.851000000    -0.517000000     2.238000000
H    -4.912000000     0.287000000     3.113000000
O    -2.253000000    -0.067000000    -3.991000000
H    -2.540000000    -0.190000000    -3.086000000
H    -1.678000000     0.698000000    -3.958000000
O    -1.296000000     1.970000000     6.591000000
H    -0.596000000     2.020000000     7.242000000
H    -1.207000000     2.776000000     6.082000000
O    -3.968000000    -1.031000000    -5.747000000
H    -3.169000000    -0.750000000    -5.302000000
H    -4.365000000    -0.219000000    -6.061000000
O    -1.473000000    -4.812000000    -0.606000000
H    -2.366000000    -5.137000000    -0.486000000
H    -1.302000000    -4.921000000    -1.542000000
O     0.361000000    -5.010000000     4.176000000
H     1.151000000    -5.011000000     3.636000000
H     0.505000000    -5.711000000     4.812000000
O    -3.387000000    -0.303000000    -1.547000000
H    -3.777000000     0.569000000    -1.606000000
H    -3.270000000    -0.451000000    -0.608000000
O    -0.379000000     6.243000000     0.845000000
H    -1.039000000     5.874000000     0.258000000
H    -0.236000000     7.131000000     0.516000000
O     1.199000000    -4.885000000     0.289000000
H     1.563000000    -4.560000000    -0.535000000
H     0.254000000    -4.902000000     0.143000000
O    -3.021000000    -0.424000000     1.204000000
H    -2.134000000    -0.064000000     1.177000000
H    -3.014000000    -1.021000000     1.953000000
O     2.884000000    -1.658000000    -5.531000000
H     3.412000000    -1.787000000    -6.318000000
H     2.290000000    -0.942000000    -5.755000000
O    -0.297000000     3.136000000    -5.781000000
H    -0.693000000     2.508000000    -6.384000000
H    -0.286000000     2.685000000    -4.937000000
O    -2.060000000     4.624000000    -0.835000000
H    -1.430000000     4.043000000    -1.262000000
H    -2.188000000     4.241000000     0.033000000
O     2.947000000    -3.462000000     2.147000000
H     3.552000000    -4.159000000     2.401000000
H     2.296000000    -3.898000000     1.596000000
O    -3.131000000     5.496000000    -4.494000000
H    -2.242000000     5.566000000    -4.145000000
H    -3.555000000     6.314000000    -4.236000000
O    -3.418000000    -1.779000000     3.601000000
H    -3.219000000    -1.374000000     4.445000000
H    -3.152000000    -2.692000000     3.705000000
O    -3.716000000     2.712000000    -3.221000000
H    -3.222000000     2.094000000    -3.760000000
H    -3.650000000     3.544000000    -3.690000000
