144
-2813.85460
O     2.462000000     3.533000000    -2.280000000
H     1.628000000     3.986000000    -2.402000000
H     3.055000000     3.950000000    -2.906000000
O     4.273000000     1.057000000    -1.434000000
H     3.469000000     0.722000000    -1.831000000
H     4.372000000     1.936000000    -1.800000000
O    -7.739000000     1.442000000     1.953000000
H    -7.902000000     1.320000000     1.017000000
H    -6.788000000     1.532000000     2.020000000
O     5.164000000    -3.522000000     3.401000000
H     4.213000000    -3.619000000     3.351000000
H     5.465000000    -3.650000000     2.502000000
O    -0.912000000     5.365000000     1.596000000
H    -1.123000000     4.635000000     1.014000000
H    -0.900000000     4.977000000     2.471000000
O    -2.853000000     3.443000000     3.614000000
H    -3.068000000     3.324000000     4.539000000
H    -1.987000000     3.047000000     3.516000000
O    -2.828000000    -4.469000000    -0.344000000
H    -3.217000000    -5.190000000    -0.839000000
H    -3.577000000    -3.978000000    -0.006000000
O     4.392000000    -2.703000000    -3.189000000
H     4.173000000    -2.923000000    -2.283000000
H     4.967000000    -1.941000000    -3.119000000
O    -0.600000000    -0.671000000    -4.764000000
H    -1.376000000    -0.709000000    -5.324000000
H    -0.731000000     0.112000000    -4.227000000
O    -0.125000000    -2.582000000    -2.976000000
H     0.442000000    -2.013000000    -2.455000000
H    -0.356000000    -2.055000000    -3.741000000
O     5.665000000    -3.550000000     0.660000000
H     5.626000000    -2.662000000     0.303000000
H     5.377000000    -4.110000000    -0.060000000
O    -0.646000000    -5.019000000    -2.013000000
H    -1.484000000    -4.928000000    -1.560000000
H    -0.413000000    -4.126000000    -2.269000000
O    -3.038000000     7.958000000    -2.635000000
H    -2.982000000     7.035000000    -2.385000000
H    -2.163000000     8.305000000    -2.466000000
O    -3.025000000     2.247000000    -3.025000000
H    -3.340000000     3.087000000    -3.357000000
H    -3.085000000     2.327000000    -2.073000000
O    -3.605000000     5.354000000    -0.935000000
H    -3.288000000     6.129000000    -0.472000000
H    -3.107000000     4.629000000    -0.559000000
O     5.753000000    -1.113000000    -0.925000000
H     5.251000000    -0.308000000    -0.800000000
H     6.400000000    -0.891000000    -1.594000000
O    -0.081000000    -1.734000000     3.633000000
H    -0.951000000    -1.472000000     3.332000000
H     0.069000000    -1.209000000     4.419000000
O     4.835000000     1.706000000     1.055000000
H     4.574000000     2.625000000     1.115000000
H     4.820000000     1.513000000     0.118000000
O    -5.788000000    -0.793000000    -1.273000000
H    -5.219000000    -0.858000000    -2.040000000
H    -5.901000000     0.148000000    -1.138000000
O    -1.064000000    -4.275000000     2.269000000
H    -0.506000000    -3.531000000     2.493000000
H    -1.535000000    -3.994000000     1.485000000
O    -4.363000000     0.587000000     2.865000000
H    -4.536000000     0.817000000     1.952000000
H    -4.335000000     1.427000000     3.323000000
O     5.076000000    -5.471000000    -1.849000000
H     5.388000000    -6.200000000    -2.386000000
H     4.135000000    -5.434000000    -2.020000000
O     1.318000000     6.656000000     0.401000000
H     0.955000000     7.453000000     0.012000000
H     0.708000000     6.434000000     1.104000000
O    -0.335000000     1.564000000    -3.313000000
H    -1.225000000     1.875000000    -3.478000000
H    -0.196000000     1.718000000    -2.378000000
O     3.190000000     4.250000000     0.354000000
H     2.956000000     3.908000000    -0.509000000
H     2.397000000     4.690000000     0.660000000
O    -2.566000000    -3.492000000    -4.135000000
H    -3.220000000    -2.954000000    -3.690000000
H    -1.747000000    -3.301000000    -3.677000000
O    -5.773000000     1.910000000    -1.421000000
H    -6.154000000     2.764000000    -1.218000000
H    -4.856000000     1.988000000    -1.157000000
O    -0.507000000     1.823000000     3.757000000
H    -0.345000000     1.075000000     3.182000000
H     0.017000000     1.642000000     4.538000000
O    -4.167000000    -2.170000000     0.566000000
H    -4.779000000    -2.757000000     1.009000000
H    -4.715000000    -1.656000000    -0.028000000
O    -2.871000000     7.279000000     0.778000000
H    -2.226000000     6.929000000     1.393000000
H    -2.415000000     7.995000000     0.335000000
O     0.072000000    -6.663000000     2.663000000
H    -0.390000000    -5.909000000     2.296000000
H    -0.325000000    -7.419000000     2.230000000
O     3.983000000    -6.363000000     1.099000000
H     4.831000000    -6.799000000     1.010000000
H     3.568000000    -6.470000000     0.244000000
O     2.920000000     0.959000000     3.849000000
H     3.734000000     1.462000000     3.872000000
H     2.733000000     0.849000000     2.917000000
O     2.321000000     0.118000000    -2.906000000
H     1.534000000     0.662000000    -2.944000000
H     2.517000000    -0.084000000    -3.821000000
O    -4.308000000     4.701000000    -3.360000000
H    -3.977000000     4.793000000    -2.467000000
H    -5.033000000     5.324000000    -3.412000000
O    -2.591000000    -1.396000000     2.808000000
H    -3.075000000    -1.798000000     2.087000000
H    -3.128000000    -0.648000000     3.069000000
O    -0.128000000     4.897000000    -1.742000000
H     0.245000000     5.469000000    -1.071000000
H    -0.764000000     4.359000000    -1.272000000
O    -4.739000000     3.446000000     1.615000000
H    -4.166000000     3.492000000     0.850000000
H    -4.145000000     3.503000000     2.363000000
O     2.071000000    -2.965000000     4.736000000
H     2.078000000    -3.727000000     4.157000000
H     1.264000000    -2.501000000     4.513000000
O     2.423000000    -5.840000000    -1.969000000
H     1.537000000    -5.532000000    -1.777000000
H     2.532000000    -5.686000000    -2.907000000
O     2.311000000    -5.200000000     3.015000000
H     1.584000000    -5.822000000     3.035000000
H     2.857000000    -5.493000000     2.285000000
O    -5.850000000    -3.660000000    -1.386000000
H    -6.779000000    -3.834000000    -1.536000000
H    -5.788000000    -2.705000000    -1.348000000
O     3.385000000    -2.753000000    -5.615000000
H     3.538000000    -2.851000000    -4.675000000
H     3.774000000    -3.536000000    -6.004000000
O    -4.117000000    -0.419000000    -3.306000000
H    -3.617000000     0.340000000    -3.006000000
H    -3.845000000    -0.541000000    -4.215000000
O    -7.692000000     1.002000000    -3.145000000
H    -8.342000000     1.698000000    -3.241000000
H    -7.072000000     1.342000000    -2.500000000
O    -1.425000000     4.510000000    -4.137000000
H    -0.769000000     4.777000000    -3.493000000
H    -1.785000000     5.334000000    -4.468000000
O    -3.157000000    -3.875000000     4.550000000
H    -2.882000000    -3.914000000     3.635000000
H    -3.562000000    -3.012000000     4.643000000
O    -6.270000000     4.702000000    -0.862000000
H    -6.567000000     5.199000000    -1.625000000
H    -5.563000000     5.231000000    -0.492000000
