144
-2842.34805
O     3.223000000     1.346000000     1.571000000
H     3.897000000     1.012000000     0.979000000
H     2.484000000     0.749000000     1.453000000
O     0.948000000     6.270000000    -3.884000000
H     0.028000000     6.157000000    -3.646000000
H     0.937000000     6.391000000    -4.833000000
O    -1.545000000    -2.585000000     4.871000000
H    -2.409000000    -2.327000000     4.550000000
H    -1.150000000    -1.769000000     5.177000000
O     3.750000000     3.447000000    -2.932000000
H     2.855000000     3.788000000    -2.935000000
H     3.794000000     2.885000000    -3.706000000
O    -0.636000000    -5.004000000     3.151000000
H    -1.164000000    -5.182000000     3.929000000
H     0.126000000    -4.528000000     3.481000000
O     1.353000000    -0.991000000     5.098000000
H     2.104000000    -0.430000000     4.902000000
H     0.591000000    -0.431000000     4.950000000
O    -2.526000000    -5.262000000     1.172000000
H    -1.810000000    -4.994000000     1.748000000
H    -2.896000000    -4.440000000     0.851000000
O    -2.166000000    -2.667000000    -4.750000000
H    -2.509000000    -2.396000000    -5.602000000
H    -1.215000000    -2.657000000    -4.860000000
O    -2.347000000     4.486000000    -7.166000000
H    -2.545000000     4.693000000    -8.080000000
H    -2.251000000     3.534000000    -7.152000000
O     4.479000000    -3.140000000     4.421000000
H     4.580000000    -4.062000000     4.657000000
H     4.588000000    -2.668000000     5.247000000
O    -3.272000000    -2.764000000     0.791000000
H    -4.119000000    -2.318000000     0.798000000
H    -2.645000000    -2.085000000     0.542000000
O    -1.141000000     6.578000000     2.098000000
H    -1.243000000     6.091000000     1.280000000
H    -1.367000000     7.480000000     1.869000000
O    -0.902000000     0.748000000     6.758000000
H    -1.050000000     1.045000000     5.860000000
H    -0.272000000     1.374000000     7.116000000
O     0.476000000    -3.170000000    -4.943000000
H     1.239000000    -2.871000000    -5.439000000
H     0.844000000    -3.698000000    -4.234000000
O    -2.246000000     1.637000000    -6.979000000
H    -3.109000000     1.425000000    -6.623000000
H    -1.639000000     1.100000000    -6.469000000
O     0.657000000     2.235000000    -5.125000000
H    -0.045000000     2.444000000    -4.509000000
H     0.429000000     1.369000000    -5.462000000
O     3.911000000    -5.054000000     2.073000000
H     3.894000000    -4.666000000     2.948000000
H     4.761000000    -5.492000000     2.021000000
O     2.727000000     4.346000000     3.674000000
H     2.662000000     4.021000000     2.776000000
H     3.406000000     5.019000000     3.638000000
O     0.490000000     5.867000000     4.469000000
H    -0.110000000     5.714000000     3.740000000
H     1.362000000     5.763000000     4.087000000
O    -4.319000000    -0.238000000     0.836000000
H    -4.108000000     0.680000000     0.667000000
H    -4.646000000    -0.567000000    -0.001000000
O     1.413000000     2.391000000     6.030000000
H     2.043000000     2.102000000     5.370000000
H     1.283000000     3.322000000     5.845000000
O    -4.675000000     0.902000000    -5.394000000
H    -4.773000000    -0.047000000    -5.465000000
H    -5.573000000     1.234000000    -5.365000000
O     1.061000000    -3.725000000     5.211000000
H     1.349000000    -2.812000000     5.210000000
H     0.110000000    -3.675000000     5.106000000
O    -3.411000000     2.155000000     0.325000000
H    -2.515000000     2.492000000     0.341000000
H    -3.877000000     2.744000000    -0.268000000
O    -4.148000000     4.269000000    -5.019000000
H    -3.615000000     4.676000000    -5.702000000
H    -4.852000000     3.829000000    -5.495000000
O     3.290000000    -1.581000000    -2.089000000
H     2.822000000    -2.412000000    -2.169000000
H     2.778000000    -0.966000000    -2.614000000
O     2.298000000    -4.000000000    -2.609000000
H     2.756000000    -4.693000000    -3.084000000
H     1.794000000    -4.461000000    -1.939000000
O     5.318000000    -1.125000000     2.837000000
H     4.982000000    -1.780000000     3.449000000
H     5.098000000    -1.471000000     1.972000000
O     3.356000000     1.316000000     4.345000000
H     3.275000000     1.493000000     3.408000000
H     4.180000000     1.732000000     4.597000000
O    -5.612000000     0.546000000    -1.856000000
H    -6.147000000     1.247000000    -1.486000000
H    -5.111000000     0.969000000    -2.553000000
O    -3.610000000    -3.892000000    -2.718000000
H    -3.352000000    -3.573000000    -3.583000000
H    -2.801000000    -3.880000000    -2.207000000
O    -2.423000000     2.178000000     4.645000000
H    -2.434000000     3.056000000     4.265000000
H    -2.968000000     1.655000000     4.058000000
O    -1.549000000     0.113000000    -4.749000000
H    -1.493000000     0.798000000    -4.082000000
H    -2.236000000    -0.474000000    -4.432000000
O     2.505000000     3.941000000     0.724000000
H     2.062000000     4.121000000    -0.106000000
H     2.424000000     2.994000000     0.838000000
O     4.836000000    -2.842000000     0.364000000
H     4.685000000    -3.722000000     0.710000000
H     4.009000000    -2.605000000    -0.056000000
O     0.626000000    -5.829000000    -1.579000000
H    -0.321000000    -5.700000000    -1.525000000
H     0.882000000    -6.097000000    -0.697000000
O     1.487000000    -6.313000000     0.888000000
H     2.393000000    -6.005000000     0.927000000
H     1.032000000    -5.804000000     1.558000000
O     4.371000000     0.688000000    -0.847000000
H     4.142000000    -0.179000000    -1.181000000
H     3.851000000     1.293000000    -1.376000000
O    -2.363000000    -6.709000000    -1.226000000
H    -3.207000000    -6.368000000    -1.522000000
H    -2.378000000    -6.597000000    -0.276000000
O    -3.900000000     2.620000000    -2.866000000
H    -3.029000000     2.343000000    -3.151000000
H    -4.150000000     3.302000000    -3.490000000
O     1.362000000     4.515000000    -1.542000000
H     1.458000000     5.083000000    -2.306000000
H     0.421000000     4.351000000    -1.482000000
O    -2.922000000     4.545000000     3.542000000
H    -2.548000000     5.290000000     3.072000000
H    -3.526000000     4.146000000     2.916000000
O    -3.795000000    -1.745000000     3.690000000
H    -4.256000000    -0.908000000     3.747000000
H    -3.459000000    -1.773000000     2.794000000
O    -2.086000000     5.076000000     0.145000000
H    -1.632000000     4.386000000    -0.339000000
H    -2.959000000     5.108000000    -0.247000000
O     0.420000000    -0.087000000    -6.596000000
H    -0.073000000    -0.450000000    -5.860000000
H     1.250000000    -0.564000000    -6.588000000
O    -1.883000000     5.289000000    -3.453000000
H    -2.636000000     4.761000000    -3.717000000
H    -1.480000000     4.792000000    -2.741000000
O     2.581000000     0.766000000    -3.528000000
H     1.779000000     1.195000000    -3.826000000
H     3.154000000     0.769000000    -4.294000000
O    -4.378000000     5.232000000    -1.008000000
H    -4.743000000     4.708000000    -1.722000000
H    -4.971000000     5.980000000    -0.933000000
