144
-2804.31107
O    -3.674000000     2.406000000     2.434000000
H    -3.758000000     1.619000000     2.972000000
H    -3.651000000     2.080000000     1.534000000
O     0.520000000    -1.679000000     4.757000000
H     1.135000000    -2.363000000     5.023000000
H    -0.100000000    -2.126000000     4.181000000
O    -2.713000000     4.845000000     2.667000000
H    -2.755000000     3.899000000     2.528000000
H    -2.150000000     5.166000000     1.962000000
O    -5.834000000    -1.358000000     2.475000000
H    -6.474000000    -0.798000000     2.036000000
H    -5.562000000    -1.983000000     1.804000000
O     6.240000000    -1.833000000    -1.447000000
H     5.896000000    -1.090000000    -0.952000000
H     5.486000000    -2.411000000    -1.565000000
O     2.602000000    -0.272000000     3.470000000
H     1.812000000    -0.754000000     3.714000000
H     2.364000000     0.185000000     2.663000000
O    -0.551000000    -4.638000000    -1.909000000
H    -1.468000000    -4.639000000    -1.634000000
H    -0.065000000    -4.896000000    -1.126000000
O     0.808000000    -4.517000000     0.565000000
H     1.750000000    -4.521000000     0.394000000
H     0.735000000    -4.667000000     1.507000000
O    -2.331000000     0.820000000    -7.238000000
H    -2.375000000     0.459000000    -6.352000000
H    -3.194000000     0.642000000    -7.612000000
O    -2.421000000    -0.635000000     3.722000000
H    -2.598000000    -0.809000000     4.647000000
H    -1.572000000    -0.193000000     3.719000000
O     3.664000000    -0.348000000    -3.580000000
H     2.803000000     0.067000000    -3.619000000
H     3.488000000    -1.237000000    -3.271000000
O    -1.790000000     4.873000000    -5.162000000
H    -1.528000000     4.422000000    -5.965000000
H    -1.648000000     5.801000000    -5.351000000
O     1.300000000     4.097000000    -4.046000000
H     0.591000000     3.967000000    -3.416000000
H     1.133000000     4.962000000    -4.420000000
O     5.739000000    -0.146000000     2.964000000
H     6.649000000     0.092000000     3.144000000
H     5.403000000    -0.461000000     3.803000000
O     2.498000000     5.753000000    -1.746000000
H     2.756000000     4.843000000    -1.599000000
H     1.686000000     5.693000000    -2.249000000
O     0.278000000     0.722000000     6.021000000
H     0.424000000    -0.204000000     5.830000000
H     0.347000000     0.783000000     6.974000000
O     3.544000000    -4.843000000     0.112000000
H     4.146000000    -5.441000000    -0.330000000
H     4.099000000    -4.342000000     0.709000000
O     3.552000000     1.880000000     1.596000000
H     4.074000000     1.499000000     0.890000000
H     3.951000000     1.543000000     2.398000000
O     0.105000000     2.826000000     1.506000000
H     0.167000000     2.905000000     2.457000000
H    -0.315000000     1.978000000     1.363000000
O     5.193000000     1.727000000    -3.552000000
H     5.737000000     1.752000000    -4.340000000
H     4.764000000     0.872000000    -3.584000000
O     1.646000000    -5.366000000     3.917000000
H     2.565000000    -5.129000000     3.789000000
H     1.619000000    -6.311000000     3.767000000
O    -3.415000000    -4.784000000    -0.374000000
H    -3.996000000    -4.818000000    -1.134000000
H    -3.905000000    -4.288000000     0.281000000
O     1.377000000    -2.798000000    -2.999000000
H     0.808000000    -3.492000000    -2.666000000
H     0.786000000    -2.066000000    -3.173000000
O    -4.952000000     3.652000000    -1.171000000
H    -4.415000000     3.042000000    -0.664000000
H    -4.353000000     4.011000000    -1.825000000
O    -5.580000000     0.468000000    -1.623000000
H    -5.989000000     1.105000000    -2.208000000
H    -4.820000000     0.925000000    -1.263000000
O    -6.607000000     2.564000000     0.862000000
H    -6.241000000     2.915000000     0.050000000
H    -6.110000000     2.996000000     1.556000000
O     5.401000000     0.366000000     0.174000000
H     5.980000000     1.125000000     0.096000000
H     5.542000000     0.048000000     1.066000000
O    -2.196000000     0.714000000    -4.178000000
H    -2.005000000     1.382000000    -3.520000000
H    -3.149000000     0.735000000    -4.271000000
O    -0.724000000    -4.552000000     4.477000000
H     0.110000000    -4.955000000     4.235000000
H    -1.244000000    -4.576000000     3.674000000
O    -3.322000000    -3.404000000     2.939000000
H    -3.291000000    -2.545000000     3.361000000
H    -3.045000000    -4.015000000     3.621000000
O     3.176000000    -2.318000000     5.777000000
H     3.526000000    -1.456000000     6.002000000
H     3.950000000    -2.864000000     5.643000000
O     4.275000000    -5.202000000     3.762000000
H     4.803000000    -5.675000000     3.120000000
H     4.913000000    -4.837000000     4.375000000
O     2.723000000     4.291000000     2.224000000
H     2.958000000     3.378000000     2.056000000
H     2.232000000     4.558000000     1.447000000
O    -3.926000000     3.854000000    -3.804000000
H    -3.456000000     3.259000000    -3.220000000
H    -3.246000000     4.220000000    -4.370000000
O    -5.891000000     5.416000000    -4.631000000
H    -5.280000000     4.785000000    -4.253000000
H    -5.690000000     5.415000000    -5.566000000
O    -5.892000000    -2.213000000    -0.714000000
H    -5.216000000    -2.813000000    -1.028000000
H    -5.620000000    -1.354000000    -1.038000000
O    -5.640000000     4.225000000     3.005000000
H    -5.827000000     3.737000000     3.806000000
H    -4.728000000     4.013000000     2.803000000
O     3.230000000     3.311000000    -0.989000000
H     3.812000000     2.738000000    -1.487000000
H     3.077000000     2.843000000    -0.168000000
O    -3.565000000    -1.752000000    -3.435000000
H    -2.793000000    -1.206000000    -3.290000000
H    -4.306000000    -1.161000000    -3.297000000
O     4.146000000     0.194000000     5.482000000
H     3.446000000     0.141000000     4.832000000
H     4.632000000     0.985000000     5.247000000
O    -1.212000000     4.452000000    -2.609000000
H    -1.844000000     3.741000000    -2.502000000
H    -1.586000000     5.003000000    -3.297000000
O     2.390000000     1.818000000    -4.779000000
H     1.762000000     2.456000000    -4.440000000
H     3.246000000     2.183000000    -4.555000000
O    -4.908000000     1.462000000    -5.039000000
H    -4.797000000     2.284000000    -4.561000000
H    -4.991000000     1.727000000    -5.955000000
O    -1.018000000     5.563000000     0.297000000
H    -0.986000000     6.270000000    -0.348000000
H    -0.757000000     4.782000000    -0.190000000
O     5.107000000    -3.382000000     1.633000000
H     5.888000000    -2.834000000     1.716000000
H     4.469000000    -2.980000000     2.222000000
O     3.904000000    -3.187000000    -2.272000000
H     3.904000000    -3.778000000    -1.519000000
H     2.988000000    -3.148000000    -2.547000000
O     0.802000000    -0.499000000    -4.296000000
H    -0.053000000    -0.129000000    -4.078000000
H     1.119000000     0.043000000    -5.020000000
O    -7.655000000     0.250000000     1.115000000
H    -8.458000000     0.198000000     0.597000000
H    -7.236000000     1.061000000     0.825000000
