144
-2823.72894
O    -4.407000000    -0.601000000     4.177000000
H    -4.258000000    -0.003000000     3.444000000
H    -4.192000000    -0.085000000     4.954000000
O     1.416000000    -4.454000000     4.805000000
H     0.684000000    -3.983000000     4.410000000
H     1.634000000    -3.947000000     5.587000000
O    -3.090000000     1.142000000     6.082000000
H    -2.319000000     0.742000000     6.486000000
H    -2.770000000     1.970000000     5.723000000
O    -5.489000000     3.766000000    -3.333000000
H    -5.170000000     2.890000000    -3.552000000
H    -4.862000000     4.096000000    -2.690000000
O     1.708000000     4.103000000     0.621000000
H     1.458000000     3.321000000     1.113000000
H     2.413000000     3.809000000     0.044000000
O     1.490000000    -6.548000000     1.682000000
H     1.861000000    -7.430000000     1.658000000
H     1.323000000    -6.383000000     2.610000000
O     3.949000000    -5.769000000    -3.235000000
H     3.553000000    -4.936000000    -3.490000000
H     3.204000000    -6.340000000    -3.044000000
O     2.639000000     6.550000000    -2.144000000
H     3.337000000     6.919000000    -1.604000000
H     2.381000000     5.750000000    -1.687000000
O     2.636000000    -2.022000000    -3.960000000
H     2.597000000    -2.264000000    -4.885000000
H     2.093000000    -2.674000000    -3.518000000
O    -6.630000000     3.990000000    -0.245000000
H    -7.124000000     4.467000000    -0.912000000
H    -5.713000000     4.179000000    -0.443000000
O     2.732000000     3.227000000    -1.736000000
H     3.114000000     2.355000000    -1.635000000
H     3.416000000     3.740000000    -2.166000000
O     3.717000000    -4.562000000    -0.068000000
H     2.873000000    -4.755000000    -0.477000000
H     3.652000000    -3.644000000     0.193000000
O     2.322000000    -1.283000000     4.616000000
H     2.709000000    -0.634000000     4.029000000
H     3.028000000    -1.510000000     5.221000000
O    -0.492000000     5.567000000    -3.844000000
H     0.347000000     5.827000000    -4.224000000
H    -0.255000000     5.039000000    -3.080000000
O     1.538000000    -4.324000000    -3.134000000
H     1.433000000    -4.780000000    -2.299000000
H     1.219000000    -4.946000000    -3.788000000
O    -2.710000000     4.695000000     2.225000000
H    -2.678000000     4.003000000     1.565000000
H    -3.036000000     5.462000000     1.753000000
O    -4.044000000     1.314000000     2.402000000
H    -3.539000000     1.912000000     1.851000000
H    -4.761000000     1.849000000     2.741000000
O    -4.465000000     6.767000000     0.876000000
H    -4.769000000     6.262000000     0.122000000
H    -4.697000000     7.672000000     0.668000000
O     4.338000000     1.100000000    -1.000000000
H     5.246000000     1.401000000    -0.971000000
H     4.400000000     0.177000000    -1.245000000
O    -4.043000000     4.758000000    -1.100000000
H    -3.355000000     4.102000000    -0.987000000
H    -3.593000000     5.515000000    -1.475000000
O     1.367000000    -6.052000000    -1.068000000
H     1.539000000    -6.838000000    -1.585000000
H     1.687000000    -6.267000000    -0.192000000
O    -0.473000000    -0.984000000     4.633000000
H    -0.401000000    -0.554000000     5.485000000
H     0.429000000    -1.198000000     4.395000000
O     6.706000000    -3.644000000     2.185000000
H     6.142000000    -4.356000000     1.885000000
H     7.535000000    -3.786000000     1.727000000
O    -2.433000000    -2.649000000     4.303000000
H    -1.637000000    -2.127000000     4.396000000
H    -3.140000000    -2.005000000     4.267000000
O    -1.172000000    -5.268000000    -2.792000000
H    -1.260000000    -5.451000000    -1.856000000
H    -0.483000000    -4.606000000    -2.843000000
O     0.783000000     0.982000000    -5.182000000
H     0.428000000     1.771000000    -5.592000000
H     0.073000000     0.342000000    -5.239000000
O    -1.690000000     7.506000000    -0.425000000
H    -2.335000000     7.421000000    -1.127000000
H    -1.143000000     6.724000000    -0.507000000
O    -2.658000000     4.540000000    -4.913000000
H    -3.299000000     5.179000000    -4.601000000
H    -1.828000000     4.829000000    -4.533000000
O    -6.981000000     1.046000000    -0.376000000
H    -6.993000000     1.995000000    -0.255000000
H    -6.067000000     0.840000000    -0.569000000
O    -3.028000000     4.738000000     5.239000000
H    -3.223000000     4.623000000     4.309000000
H    -2.149000000     4.373000000     5.346000000
O    -1.908000000    -2.203000000    -1.347000000
H    -1.824000000    -1.831000000    -0.469000000
H    -2.494000000    -2.952000000    -1.234000000
O     7.025000000    -0.130000000    -1.945000000
H     6.451000000    -0.880000000    -2.100000000
H     7.484000000    -0.005000000    -2.776000000
O     0.926000000     1.643000000     2.497000000
H     1.642000000     1.051000000     2.728000000
H     0.278000000     1.081000000     2.072000000
O    -2.057000000     2.016000000    -3.552000000
H    -2.047000000     2.622000000    -4.293000000
H    -2.038000000     2.581000000    -2.780000000
O    -0.019000000     4.839000000    -1.176000000
H    -0.726000000     4.194000000    -1.195000000
H     0.606000000     4.492000000    -0.540000000
O     3.588000000     3.940000000    -5.029000000
H     3.980000000     3.960000000    -5.902000000
H     3.490000000     3.009000000    -4.831000000
O     5.081000000    -1.999000000    -2.255000000
H     5.528000000    -2.844000000    -2.201000000
H     4.303000000    -2.173000000    -2.784000000
O    -5.211000000     0.876000000    -3.546000000
H    -5.886000000     0.344000000    -3.124000000
H    -4.424000000     0.723000000    -3.023000000
O    -0.527000000     5.614000000     3.533000000
H    -1.259000000     5.300000000     3.002000000
H    -0.446000000     4.968000000     4.235000000
O    -4.322000000     0.420000000    -1.067000000
H    -3.629000000    -0.236000000    -0.991000000
H    -3.856000000     1.252000000    -1.145000000
O    -1.472000000    -5.443000000    -0.017000000
H    -2.136000000    -5.171000000     0.616000000
H    -0.765000000    -5.803000000     0.518000000
O     4.238000000    -5.913000000     2.247000000
H     4.176000000    -5.467000000     1.402000000
H     3.333000000    -6.129000000     2.471000000
O     3.376000000     1.124000000    -4.293000000
H     2.439000000     1.127000000    -4.488000000
H     3.606000000     0.196000000    -4.236000000
O    -2.942000000     6.654000000    -2.629000000
H    -3.413000000     7.331000000    -3.115000000
H    -2.208000000     6.418000000    -3.197000000
O     0.006000000    -2.426000000    -5.656000000
H    -0.261000000    -1.821000000    -4.964000000
H    -0.696000000    -3.076000000    -5.689000000
O    -1.506000000    -0.675000000    -3.885000000
H    -1.407000000    -1.072000000    -3.020000000
H    -1.624000000     0.258000000    -3.709000000
O    -3.568000000    -3.557000000     1.605000000
H    -3.583000000    -2.651000000     1.912000000
H    -4.485000000    -3.831000000     1.624000000
O    -1.863000000    -5.288000000     3.658000000
H    -2.116000000    -4.374000000     3.788000000
H    -2.581000000    -5.665000000     3.150000000
