144
-2810.99794
O     7.312000000     1.231000000     0.840000000
H     7.004000000     1.658000000     1.639000000
H     6.521000000     0.863000000     0.445000000
O    -2.601000000    -0.084000000     2.638000000
H    -3.039000000    -0.442000000     3.410000000
H    -1.753000000    -0.527000000     2.616000000
O     2.124000000    -1.844000000     7.042000000
H     2.183000000    -2.105000000     6.123000000
H     1.682000000    -2.576000000     7.471000000
O    -3.955000000     3.044000000     1.697000000
H    -4.272000000     2.151000000     1.560000000
H    -3.012000000     2.947000000     1.825000000
O    -0.231000000    -3.130000000     3.301000000
H     0.016000000    -3.515000000     2.460000000
H     0.458000000    -3.409000000     3.904000000
O    -7.536000000    -2.566000000    -1.286000000
H    -6.669000000    -2.161000000    -1.250000000
H    -7.394000000    -3.464000000    -0.987000000
O     4.877000000     0.359000000    -0.201000000
H     4.464000000     1.200000000    -0.400000000
H     4.483000000    -0.254000000    -0.822000000
O     4.166000000     1.130000000     4.019000000
H     4.718000000     0.517000000     3.532000000
H     4.783000000     1.654000000     4.529000000
O     0.422000000    -0.943000000    -2.866000000
H    -0.407000000    -0.646000000    -2.491000000
H     0.607000000    -1.768000000    -2.417000000
O     1.464000000    -5.013000000     1.762000000
H     2.342000000    -4.799000000     1.447000000
H     1.534000000    -4.971000000     2.716000000
O     6.773000000    -3.396000000     2.893000000
H     7.443000000    -2.845000000     3.298000000
H     6.545000000    -2.940000000     2.083000000
O    -1.847000000    -3.454000000    -2.006000000
H    -2.112000000    -3.253000000    -2.904000000
H    -1.092000000    -4.034000000    -2.103000000
O    -1.199000000    -0.877000000     5.587000000
H    -0.280000000    -0.735000000     5.361000000
H    -1.256000000    -0.646000000     6.515000000
O     3.175000000     6.006000000    -0.951000000
H     2.219000000     6.044000000    -0.920000000
H     3.370000000     5.520000000    -1.752000000
O     6.702000000    -0.282000000     3.664000000
H     7.536000000    -0.675000000     3.920000000
H     6.945000000     0.538000000     3.234000000
O     0.132000000     6.129000000    -1.221000000
H     0.134000000     5.998000000    -0.273000000
H    -0.650000000     5.667000000    -1.525000000
O     4.106000000    -4.463000000     1.167000000
H     4.664000000    -5.190000000     1.445000000
H     4.717000000    -3.747000000     0.992000000
O     3.275000000     3.283000000     2.064000000
H     3.595000000     2.521000000     2.548000000
H     3.591000000     3.149000000     1.170000000
O    -1.165000000     2.422000000     2.287000000
H    -1.625000000     1.588000000     2.195000000
H    -0.385000000     2.211000000     2.799000000
O     2.198000000     1.944000000    -3.236000000
H     1.696000000     1.138000000    -3.122000000
H     1.586000000     2.552000000    -3.651000000
O     2.105000000    -4.226000000     4.386000000
H     2.063000000    -5.042000000     4.883000000
H     3.023000000    -3.961000000     4.438000000
O    -2.870000000    -3.528000000     2.441000000
H    -1.990000000    -3.502000000     2.816000000
H    -3.382000000    -4.040000000     3.067000000
O     3.432000000    -3.617000000    -1.498000000
H     4.174000000    -3.937000000    -2.011000000
H     3.530000000    -4.040000000    -0.645000000
O    -6.028000000     2.159000000    -2.798000000
H    -5.261000000     1.692000000    -2.467000000
H    -6.768000000     1.596000000    -2.569000000
O    -4.803000000     0.609000000     0.653000000
H    -4.305000000     0.842000000    -0.131000000
H    -4.557000000    -0.299000000     0.832000000
O    -2.484000000    -1.815000000    -4.364000000
H    -1.667000000    -1.417000000    -4.662000000
H    -3.061000000    -1.073000000    -4.185000000
O    -5.233000000     5.492000000     0.592000000
H    -4.739000000     4.684000000     0.730000000
H    -5.901000000     5.257000000    -0.052000000
O     5.789000000    -1.434000000     6.012000000
H     6.711000000    -1.264000000     6.204000000
H     5.543000000    -0.750000000     5.390000000
O     0.728000000     4.837000000     1.359000000
H     0.237000000     4.081000000     1.681000000
H     1.605000000     4.496000000     1.183000000
O    -0.151000000     3.135000000    -4.192000000
H    -0.752000000     3.009000000    -3.458000000
H    -0.113000000     4.084000000    -4.311000000
O     1.582000000    -4.726000000    -3.896000000
H     1.957000000    -5.571000000    -4.145000000
H     1.520000000    -4.764000000    -2.941000000
O    -2.280000000     2.894000000    -7.193000000
H    -1.874000000     2.109000000    -6.825000000
H    -3.203000000     2.822000000    -6.951000000
O    -0.957000000     0.691000000    -5.517000000
H    -0.710000000     1.501000000    -5.071000000
H    -1.888000000     0.584000000    -5.322000000
O     1.068000000     1.857000000     3.902000000
H     1.748000000     1.792000000     3.232000000
H     1.432000000     2.453000000     4.557000000
O    -4.977000000    -2.047000000     1.471000000
H    -4.260000000    -2.309000000     2.049000000
H    -5.029000000    -2.748000000     0.822000000
O     3.637000000     2.855000000    -0.759000000
H     3.112000000     2.411000000    -1.425000000
H     4.260000000     3.384000000    -1.258000000
O     0.806000000    -5.225000000    -1.080000000
H     0.062000000    -5.711000000    -0.723000000
H     1.237000000    -4.848000000    -0.313000000
O    -4.663000000    -1.559000000    -1.911000000
H    -3.812000000    -1.925000000    -1.669000000
H    -4.498000000    -0.622000000    -2.020000000
O    -2.616000000     5.087000000    -1.573000000
H    -2.499000000     4.169000000    -1.818000000
H    -3.301000000     5.406000000    -2.161000000
O    -3.478000000    -5.199000000     0.357000000
H    -3.057000000    -4.382000000     0.625000000
H    -2.815000000    -5.872000000     0.511000000
O    -3.520000000     0.911000000    -4.583000000
H    -3.670000000     1.453000000    -3.808000000
H    -3.952000000     1.384000000    -5.294000000
O    -2.481000000     6.180000000     0.965000000
H    -3.390000000     6.058000000     1.237000000
H    -2.426000000     5.750000000     0.112000000
O    -1.156000000    -3.951000000     5.919000000
H    -2.113000000    -3.940000000     5.939000000
H    -0.934000000    -3.862000000     4.992000000
O     5.855000000    -2.611000000     0.449000000
H     5.371000000    -1.819000000     0.217000000
H     6.551000000    -2.668000000    -0.207000000
O     3.427000000    -1.002000000    -1.809000000
H     3.311000000    -1.936000000    -1.635000000
H     2.667000000    -0.587000000    -1.403000000
O    -7.699000000    -0.205000000     1.076000000
H    -8.115000000     0.174000000     0.301000000
H    -6.761000000    -0.117000000     0.912000000
O    -5.624000000    -3.310000000    -3.617000000
H    -5.400000000    -3.057000000    -2.722000000
H    -6.519000000    -3.644000000    -3.555000000
O    -4.722000000     5.575000000    -3.045000000
H    -5.312000000     4.837000000    -2.889000000
H    -4.931000000     5.865000000    -3.933000000
