144
-2798.97134
O    -1.115000000     6.967000000    -3.138000000
H    -0.298000000     7.206000000    -3.575000000
H    -1.276000000     7.684000000    -2.524000000
O     0.919000000    -1.828000000     4.246000000
H     1.224000000    -2.579000000     3.737000000
H     1.527000000    -1.775000000     4.983000000
O     1.294000000     1.683000000     1.858000000
H     1.937000000     1.851000000     1.168000000
H     1.055000000     0.764000000     1.743000000
O     0.318000000    -1.532000000    -4.330000000
H    -0.072000000    -2.038000000    -3.617000000
H    -0.336000000    -0.864000000    -4.535000000
O     1.142000000    -4.579000000     3.407000000
H     1.312000000    -5.517000000     3.323000000
H     0.209000000    -4.522000000     3.614000000
O     4.979000000    -0.196000000     5.331000000
H     5.836000000     0.107000000     5.633000000
H     4.707000000     0.459000000     4.688000000
O    -3.278000000     1.710000000     6.080000000
H    -2.751000000     1.682000000     5.281000000
H    -2.660000000     1.964000000     6.765000000
O    -3.863000000    -2.062000000    -1.364000000
H    -4.395000000    -2.239000000    -2.140000000
H    -2.984000000    -1.904000000    -1.708000000
O    -5.271000000     6.629000000     1.055000000
H    -5.012000000     7.530000000     0.861000000
H    -4.610000000     6.091000000     0.619000000
O    -1.562000000    -0.902000000     4.902000000
H    -0.676000000    -0.951000000     4.542000000
H    -1.914000000    -0.081000000     4.559000000
O     2.663000000    -0.224000000    -4.898000000
H     1.781000000    -0.565000000    -4.749000000
H     2.814000000    -0.353000000    -5.834000000
O    -0.180000000     4.413000000    -3.006000000
H    -0.820000000     3.961000000    -2.455000000
H    -0.586000000     5.257000000    -3.200000000
O     4.020000000    -4.561000000     2.043000000
H     3.263000000    -4.792000000     2.581000000
H     4.349000000    -3.749000000     2.429000000
O    -0.309000000     3.310000000     3.416000000
H     0.154000000     2.715000000     2.826000000
H    -0.373000000     4.130000000     2.927000000
O     0.359000000     2.200000000    -4.579000000
H     1.216000000     2.228000000    -5.005000000
H     0.399000000     2.891000000    -3.917000000
O     2.658000000    -1.666000000     6.186000000
H     2.998000000    -2.386000000     6.717000000
H     3.434000000    -1.160000000     5.945000000
O    -3.148000000     4.867000000    -6.129000000
H    -3.399000000     5.785000000    -6.032000000
H    -3.280000000     4.489000000    -5.259000000
O    -5.097000000    -3.209000000     2.791000000
H    -5.086000000    -4.083000000     3.182000000
H    -4.345000000    -3.201000000     2.199000000
O     4.874000000    -1.135000000    -1.830000000
H     4.338000000    -1.911000000    -1.994000000
H     5.726000000    -1.347000000    -2.213000000
O    -5.198000000     3.109000000    -1.720000000
H    -4.605000000     2.495000000    -1.287000000
H    -5.242000000     3.859000000    -1.127000000
O    -4.128000000     2.311000000     1.866000000
H    -3.813000000     3.180000000     2.115000000
H    -3.839000000     2.202000000     0.960000000
O    -2.018000000     0.409000000    -4.217000000
H    -2.895000000     0.789000000    -4.264000000
H    -1.430000000     1.141000000    -4.403000000
O    -1.545000000    -4.214000000     3.997000000
H    -1.692000000    -3.276000000     4.118000000
H    -2.297000000    -4.631000000     4.416000000
O     4.259000000     2.042000000    -4.888000000
H     3.726000000     1.272000000    -4.695000000
H     3.692000000     2.785000000    -4.681000000
O    -1.762000000    -6.643000000     0.596000000
H    -2.095000000    -7.540000000     0.579000000
H    -0.862000000    -6.729000000     0.912000000
O     2.159000000    -5.753000000    -2.994000000
H     2.417000000    -5.282000000    -2.202000000
H     1.325000000    -6.164000000    -2.767000000
O     5.151000000    -2.615000000     3.743000000
H     6.045000000    -2.714000000     3.415000000
H     5.121000000    -1.725000000     4.093000000
O     1.505000000     4.623000000    -0.575000000
H     0.732000000     4.275000000    -1.018000000
H     1.168000000     4.993000000     0.241000000
O    -3.483000000     3.439000000    -3.830000000
H    -2.813000000     3.165000000    -3.204000000
H    -4.251000000     3.629000000    -3.291000000
O    -1.287000000    -2.129000000    -2.205000000
H    -1.000000000    -2.875000000    -1.678000000
H    -0.934000000    -1.364000000    -1.750000000
O    -2.177000000     1.429000000     3.596000000
H    -1.519000000     2.110000000     3.453000000
H    -2.752000000     1.488000000     2.832000000
O    -6.870000000     1.229000000     2.529000000
H    -6.821000000     0.361000000     2.930000000
H    -6.148000000     1.243000000     1.900000000
O     4.116000000     4.171000000    -0.600000000
H     4.232000000     3.317000000    -1.017000000
H     3.199000000     4.393000000    -0.760000000
O    -0.545000000    -4.289000000    -0.075000000
H    -0.886000000    -5.022000000     0.438000000
H     0.406000000    -4.379000000    -0.019000000
O     1.081000000    -7.067000000     0.807000000
H     1.877000000    -6.893000000     0.304000000
H     1.382000000    -7.152000000     1.711000000
O    -5.489000000    -0.052000000    -0.668000000
H    -5.109000000    -0.849000000    -1.038000000
H    -4.772000000     0.582000000    -0.678000000
O    -3.872000000     6.968000000    -3.458000000
H    -2.930000000     6.803000000    -3.496000000
H    -4.119000000     7.163000000    -4.362000000
O    -3.459000000     5.356000000    -0.816000000
H    -3.508000000     5.859000000    -1.629000000
H    -2.826000000     4.663000000    -1.002000000
O    -3.004000000    -3.068000000     1.279000000
H    -3.416000000    -2.396000000     0.734000000
H    -2.299000000    -3.418000000     0.735000000
O    -7.576000000     2.245000000    -2.495000000
H    -6.661000000     2.426000000    -2.282000000
H    -7.928000000     3.090000000    -2.776000000
O    -1.486000000     5.011000000     1.276000000
H    -2.102000000     5.175000000     1.990000000
H    -2.038000000     4.931000000     0.497000000
O     3.829000000    -3.078000000    -3.364000000
H     4.245000000    -3.378000000    -4.172000000
H     3.375000000    -2.274000000    -3.613000000
O     3.682000000     2.337000000     3.914000000
H     4.133000000     3.036000000     3.442000000
H     2.853000000     2.227000000     3.447000000
O     6.451000000     2.202000000    -3.075000000
H     5.658000000     2.142000000    -3.608000000
H     6.206000000     1.809000000    -2.237000000
O     4.845000000     1.481000000    -1.093000000
H     5.147000000     1.616000000    -0.195000000
H     4.911000000     0.536000000    -1.228000000
O     3.609000000    -6.235000000    -0.285000000
H     4.082000000    -5.695000000     0.348000000
H     3.960000000    -7.117000000    -0.156000000
O     2.528000000     4.210000000    -3.768000000
H     1.638000000     4.446000000    -3.506000000
H     2.836000000     4.961000000    -4.275000000
O    -7.977000000    -0.929000000    -0.021000000
H    -7.141000000    -0.473000000    -0.112000000
H    -7.738000000    -1.815000000     0.250000000
