144
-2824.93561
O    -0.312000000    -2.286000000     4.657000000
H     0.536000000    -2.003000000     4.313000000
H    -0.117000000    -3.085000000     5.147000000
O     4.932000000     0.789000000    -1.420000000
H     5.518000000     1.538000000    -1.316000000
H     4.970000000     0.336000000    -0.578000000
O    -0.011000000     5.208000000    -5.120000000
H     0.529000000     5.978000000    -5.298000000
H    -0.338000000     5.345000000    -4.231000000
O    -6.670000000    -0.171000000    -2.688000000
H    -6.941000000    -1.088000000    -2.729000000
H    -6.346000000    -0.057000000    -1.794000000
O    -4.996000000    -0.255000000     3.349000000
H    -4.558000000    -0.980000000     2.903000000
H    -5.911000000    -0.326000000     3.078000000
O     2.184000000     4.469000000    -0.849000000
H     1.742000000     4.119000000    -0.076000000
H     2.546000000     5.306000000    -0.560000000
O     3.419000000     0.979000000    -3.590000000
H     3.085000000     1.818000000    -3.271000000
H     4.130000000     0.760000000    -2.988000000
O    -2.573000000    -5.939000000     2.627000000
H    -3.209000000    -5.850000000     3.337000000
H    -1.755000000    -5.604000000     2.994000000
O    -1.420000000    -0.278000000     6.174000000
H    -0.904000000    -0.908000000     5.671000000
H    -1.817000000     0.289000000     5.513000000
O     3.092000000    -3.615000000    -2.732000000
H     2.565000000    -4.318000000    -2.354000000
H     2.460000000    -2.927000000    -2.942000000
O     1.356000000    -1.534000000    -3.409000000
H     0.896000000    -0.720000000    -3.206000000
H     1.126000000    -1.718000000    -4.320000000
O    -6.979000000     3.686000000     0.459000000
H    -7.379000000     2.824000000     0.573000000
H    -6.046000000     3.540000000     0.614000000
O     2.312000000    -6.004000000     1.037000000
H     2.478000000    -5.547000000     1.861000000
H     1.806000000    -6.777000000     1.289000000
O    -0.024000000     2.842000000     3.012000000
H     0.735000000     2.295000000     2.810000000
H    -0.746000000     2.222000000     3.117000000
O     5.994000000    -3.311000000    -2.553000000
H     6.448000000    -2.850000000    -1.847000000
H     5.065000000    -3.180000000    -2.366000000
O    -0.707000000     2.307000000    -4.310000000
H    -0.056000000     2.780000000    -3.792000000
H    -0.666000000     2.715000000    -5.175000000
O     4.701000000    -0.137000000     4.247000000
H     4.884000000     0.312000000     3.422000000
H     5.507000000    -0.616000000     4.443000000
O    -1.682000000    -1.559000000    -2.204000000
H    -1.284000000    -1.186000000    -1.417000000
H    -1.951000000    -0.799000000    -2.719000000
O    -4.416000000     3.483000000     1.146000000
H    -4.036000000     2.801000000     0.592000000
H    -3.668000000     3.859000000     1.611000000
O    -2.334000000     5.797000000     2.471000000
H    -1.639000000     6.321000000     2.072000000
H    -1.981000000     5.539000000     3.322000000
O     4.251000000     1.094000000     1.708000000
H     4.665000000     0.301000000     1.367000000
H     4.964000000     1.730000000     1.766000000
O    -3.390000000     4.985000000    -2.364000000
H    -2.674000000     4.442000000    -2.033000000
H    -4.139000000     4.390000000    -2.409000000
O     1.729000000    -5.633000000    -1.435000000
H     0.774000000    -5.687000000    -1.407000000
H     2.007000000    -5.833000000    -0.541000000
O     2.233000000    -1.357000000     3.883000000
H     1.928000000    -0.634000000     3.335000000
H     3.187000000    -1.272000000     3.881000000
O    -2.845000000     1.424000000     3.877000000
H    -3.257000000     2.174000000     4.307000000
H    -3.579000000     0.897000000     3.561000000
O    -0.893000000    -6.201000000    -1.709000000
H    -1.602000000    -6.380000000    -2.327000000
H    -1.180000000    -6.606000000    -0.891000000
O    -1.737000000     7.153000000    -1.209000000
H    -2.614000000     7.512000000    -1.340000000
H    -1.599000000     7.200000000    -0.262000000
O    -2.562000000     6.899000000    -4.387000000
H    -2.185000000     7.454000000    -3.704000000
H    -2.792000000     6.087000000    -3.936000000
O    -7.251000000     1.048000000     1.128000000
H    -8.013000000     0.470000000     1.109000000
H    -6.545000000     0.527000000     0.747000000
O     3.614000000    -1.282000000    -5.238000000
H     2.954000000    -0.767000000    -4.775000000
H     3.129000000    -2.023000000    -5.602000000
O    -3.966000000    -3.262000000    -1.276000000
H    -4.014000000    -3.110000000    -0.332000000
H    -3.161000000    -2.823000000    -1.549000000
O     5.728000000    -0.818000000     0.602000000
H     6.515000000    -1.017000000     0.094000000
H     5.360000000    -1.675000000     0.817000000
O     1.768000000     1.105000000     2.484000000
H     2.663000000     1.161000000     2.150000000
H     1.234000000     0.925000000     1.710000000
O    -2.461000000     0.802000000    -3.122000000
H    -1.791000000     1.375000000    -3.496000000
H    -2.898000000     1.342000000    -2.464000000
O    -0.169000000     5.357000000    -2.449000000
H    -0.869000000     5.895000000    -2.079000000
H     0.098000000     4.784000000    -1.731000000
O     5.041000000    -3.407000000     1.003000000
H     4.172000000    -3.799000000     1.086000000
H     5.647000000    -4.131000000     1.161000000
O    -4.867000000    -0.157000000    -0.538000000
H    -4.415000000    -0.881000000    -0.106000000
H    -4.205000000     0.530000000    -0.610000000
O    -5.283000000     3.348000000    -1.843000000
H    -4.603000000     2.965000000    -1.289000000
H    -5.930000000     3.690000000    -1.226000000
O     0.048000000     4.551000000     0.921000000
H    -0.681000000     4.319000000     0.344000000
H    -0.082000000     4.010000000     1.700000000
O    -0.622000000    -4.119000000    -3.354000000
H    -1.051000000    -3.378000000    -2.927000000
H    -0.465000000    -4.745000000    -2.648000000
O     1.641000000     3.279000000    -3.201000000
H     1.926000000     3.521000000    -2.320000000
H     1.553000000     4.113000000    -3.662000000
O    -4.498000000     7.046000000    -0.752000000
H    -5.187000000     6.527000000    -0.337000000
H    -4.005000000     6.414000000    -1.274000000
O    -0.466000000     7.395000000     1.295000000
H     0.108000000     7.842000000     1.917000000
H     0.016000000     6.605000000     1.049000000
O     3.075000000    -4.322000000     2.955000000
H     3.777000000    -4.433000000     3.596000000
H     2.724000000    -3.450000000     3.132000000
O    -4.310000000    -1.073000000    -4.344000000
H    -5.102000000    -0.653000000    -4.007000000
H    -3.604000000    -0.723000000    -3.800000000
O    -4.197000000    -2.694000000     1.174000000
H    -3.548000000    -2.854000000     1.859000000
H    -5.013000000    -3.044000000     1.532000000
O    -2.856000000    -2.646000000     3.595000000
H    -2.013000000    -2.367000000     3.952000000
H    -3.225000000    -3.217000000     4.268000000
O    -2.339000000     0.816000000    -6.122000000
H    -1.831000000     0.920000000    -5.318000000
H    -2.420000000    -0.131000000    -6.233000000
