144
-2852.36326
O     2.333000000     1.528000000     3.604000000
H     1.829000000     0.770000000     3.308000000
H     1.780000000     2.280000000     3.394000000
O    -0.612000000    -6.466000000    -1.844000000
H    -1.568000000    -6.503000000    -1.798000000
H    -0.389000000    -6.996000000    -2.610000000
O    -2.061000000     3.830000000     2.457000000
H    -2.690000000     4.187000000     3.084000000
H    -2.596000000     3.344000000     1.831000000
O     3.822000000    -4.680000000     4.300000000
H     3.525000000    -5.250000000     3.591000000
H     3.186000000    -4.820000000     5.002000000
O    -1.081000000     4.176000000    -2.418000000
H    -1.699000000     3.702000000    -1.861000000
H    -0.367000000     4.422000000    -1.828000000
O    -4.061000000     1.807000000     4.276000000
H    -4.537000000     2.111000000     3.503000000
H    -3.702000000     2.605000000     4.665000000
O    -4.338000000    -0.935000000    -2.075000000
H    -4.104000000    -0.845000000    -2.998000000
H    -4.031000000    -0.123000000    -1.670000000
O     0.979000000    -1.111000000     3.700000000
H     0.922000000    -2.056000000     3.561000000
H     0.983000000    -1.008000000     4.651000000
O     1.027000000    -3.841000000     3.885000000
H     1.657000000    -4.316000000     3.343000000
H     1.166000000    -4.182000000     4.768000000
O     5.533000000    -0.522000000    -1.349000000
H     5.566000000     0.031000000    -0.568000000
H     5.302000000    -1.390000000    -1.019000000
O     4.000000000     3.445000000     0.400000000
H     3.444000000     4.170000000     0.685000000
H     3.664000000     3.211000000    -0.465000000
O    -5.922000000     6.408000000    -1.274000000
H    -6.037000000     6.962000000    -2.046000000
H    -5.748000000     5.536000000    -1.628000000
O     5.355000000    -3.552000000    -0.630000000
H     6.051000000    -4.015000000    -1.096000000
H     5.302000000    -3.989000000     0.220000000
O    -4.814000000     2.160000000     1.506000000
H    -4.529000000     1.827000000     0.655000000
H    -5.770000000     2.144000000     1.462000000
O     0.372000000     1.633000000    -2.919000000
H     0.060000000     2.528000000    -3.050000000
H     1.005000000     1.703000000    -2.204000000
O     4.170000000    -1.910000000     3.824000000
H     4.111000000    -2.864000000     3.780000000
H     3.825000000    -1.610000000     2.983000000
O     2.564000000    -5.178000000     1.933000000
H     1.786000000    -5.001000000     1.405000000
H     3.253000000    -5.357000000     1.293000000
O     5.649000000    -1.438000000     1.448000000
H     5.888000000    -2.017000000     2.172000000
H     5.351000000    -0.633000000     1.874000000
O    -3.623000000    -0.807000000     3.735000000
H    -4.205000000    -0.119000000     4.057000000
H    -2.864000000    -0.336000000     3.389000000
O    -6.816000000     0.590000000    -3.856000000
H    -5.975000000     0.723000000    -4.294000000
H    -7.056000000    -0.312000000    -4.068000000
O     3.248000000     2.555000000    -2.151000000
H     3.401000000     1.742000000    -2.633000000
H     3.145000000     3.221000000    -2.831000000
O     1.145000000    -4.952000000    -0.380000000
H     1.517000000    -4.538000000    -1.159000000
H     0.485000000    -5.555000000    -0.721000000
O    -7.110000000    -0.064000000     1.029000000
H    -6.702000000    -0.930000000     1.052000000
H    -7.206000000     0.131000000     0.097000000
O    -4.073000000    -3.169000000    -0.725000000
H    -4.030000000    -2.343000000    -1.206000000
H    -4.269000000    -2.912000000     0.175000000
O    -3.714000000    -5.932000000    -0.632000000
H    -3.379000000    -5.960000000     0.264000000
H    -3.928000000    -5.011000000    -0.780000000
O    -5.661000000    -3.564000000    -3.032000000
H    -4.989000000    -3.227000000    -2.439000000
H    -5.330000000    -4.420000000    -3.307000000
O     1.561000000    -1.536000000    -3.034000000
H     1.326000000    -2.328000000    -2.551000000
H     0.722000000    -1.153000000    -3.290000000
O    -2.664000000     3.458000000    -4.910000000
H    -1.714000000     3.413000000    -4.802000000
H    -2.995000000     3.670000000    -4.037000000
O    -0.369000000    -0.317000000    -4.840000000
H    -0.270000000     0.441000000    -4.263000000
H    -0.531000000     0.059000000    -5.705000000
O     3.672000000     0.074000000    -3.130000000
H     2.869000000    -0.400000000    -2.916000000
H     4.342000000    -0.325000000    -2.574000000
O     1.853000000     4.616000000     1.687000000
H     1.420000000     4.275000000     2.470000000
H     2.023000000     5.536000000     1.889000000
O    -3.137000000    -5.352000000     2.031000000
H    -3.688000000    -4.571000000     1.986000000
H    -2.481000000    -5.145000000     2.697000000
O    -1.078000000     0.809000000     5.397000000
H    -1.461000000    -0.036000000     5.634000000
H    -1.211000000     0.876000000     4.452000000
O     4.819000000     0.987000000     2.334000000
H     4.425000000     1.630000000     1.745000000
H     4.241000000     0.975000000     3.097000000
O     0.271000000     3.704000000     3.594000000
H    -0.568000000     3.559000000     3.155000000
H     0.067000000     3.645000000     4.527000000
O    -1.177000000     6.358000000     1.658000000
H    -1.281000000     5.443000000     1.920000000
H    -0.248000000     6.543000000     1.798000000
O    -4.760000000     3.650000000    -2.008000000
H    -5.243000000     2.830000000    -1.902000000
H    -4.109000000     3.637000000    -1.306000000
O    -4.566000000     1.337000000    -5.209000000
H    -4.141000000     2.183000000    -5.070000000
H    -4.010000000     0.892000000    -5.849000000
O    -6.382000000     1.349000000    -1.200000000
H    -6.490000000     1.245000000    -2.145000000
H    -5.510000000     0.997000000    -1.018000000
O    -4.601000000    -2.382000000     1.702000000
H    -4.314000000    -1.756000000     2.366000000
H    -5.513000000    -2.567000000     1.925000000
O    -0.728000000    -3.444000000    -3.090000000
H    -0.772000000    -3.704000000    -2.170000000
H    -0.656000000    -4.269000000    -3.570000000
O    -1.689000000     6.954000000    -3.046000000
H    -0.764000000     7.110000000    -3.237000000
H    -1.722000000     6.044000000    -2.749000000
O    -2.668000000    -1.522000000    -4.163000000
H    -2.436000000    -2.253000000    -3.590000000
H    -1.856000000    -1.025000000    -4.257000000
O    -3.068000000     8.012000000     0.307000000
H    -2.541000000     7.624000000     1.005000000
H    -2.940000000     7.430000000    -0.442000000
O    -1.097000000     0.185000000     2.747000000
H    -0.296000000    -0.318000000     2.886000000
H    -1.126000000     0.333000000     1.801000000
O     2.376000000    -4.976000000    -2.962000000
H     2.909000000    -5.763000000    -3.077000000
H     2.954000000    -4.256000000    -3.213000000
O    -6.161000000     4.892000000    -3.870000000
H    -5.577000000     4.351000000    -3.337000000
H    -5.582000000     5.319000000    -4.501000000
O     4.874000000    -3.522000000    -4.057000000
H     5.351000000    -4.349000000    -4.120000000
H     5.065000000    -3.202000000    -3.175000000
