144
-2799.74705
O    -3.898000000     0.758000000     2.864000000
H    -3.964000000     0.135000000     3.589000000
H    -3.040000000     1.166000000     2.976000000
O     1.202000000     3.122000000     5.649000000
H     0.989000000     2.619000000     4.863000000
H     2.142000000     3.287000000     5.581000000
O    -6.229000000     1.379000000     1.499000000
H    -5.440000000     0.936000000     1.810000000
H    -5.914000000     1.993000000     0.836000000
O     1.573000000    -4.495000000    -4.827000000
H     0.936000000    -5.170000000    -5.059000000
H     2.240000000    -4.548000000    -5.512000000
O    -2.721000000    -1.211000000     4.721000000
H    -2.275000000    -2.050000000     4.833000000
H    -2.652000000    -0.787000000     5.577000000
O     2.628000000     5.528000000    -0.109000000
H     2.094000000     5.038000000     0.516000000
H     3.179000000     6.091000000     0.435000000
O     5.385000000     1.103000000    -1.587000000
H     4.538000000     1.445000000    -1.301000000
H     5.585000000     0.406000000    -0.962000000
O    -0.834000000    -5.477000000     1.983000000
H    -1.446000000    -6.072000000     2.418000000
H    -1.042000000    -4.615000000     2.342000000
O     3.032000000    -3.415000000    -2.536000000
H     2.662000000    -3.834000000    -1.759000000
H     2.608000000    -3.857000000    -3.271000000
O     0.987000000    -1.478000000    -4.549000000
H     1.874000000    -1.208000000    -4.309000000
H     1.067000000    -2.411000000    -4.750000000
O    -5.340000000     6.129000000     1.246000000
H    -5.964000000     6.330000000     1.944000000
H    -4.623000000     5.674000000     1.689000000
O     1.348000000     2.559000000    -6.157000000
H     1.696000000     1.692000000    -6.364000000
H     0.397000000     2.453000000    -6.205000000
O     1.939000000    -5.627000000     2.128000000
H     2.251000000    -4.830000000     2.557000000
H     0.988000000    -5.523000000     2.094000000
O     0.792000000     1.608000000     3.376000000
H     0.877000000     0.835000000     2.817000000
H    -0.076000000     1.524000000     3.771000000
O     5.582000000    -4.216000000    -2.153000000
H     5.576000000    -4.400000000    -1.214000000
H     4.749000000    -3.775000000    -2.317000000
O     1.237000000     5.267000000    -2.240000000
H     1.746000000     5.485000000    -1.459000000
H     0.584000000     4.638000000    -1.933000000
O    -1.423000000    -1.861000000    -2.674000000
H    -0.565000000    -1.635000000    -2.316000000
H    -1.739000000    -1.049000000    -3.069000000
O    -2.680000000     5.406000000     2.085000000
H    -2.324000000     4.591000000     1.733000000
H    -2.344000000     5.449000000     2.980000000
O    -0.782000000     7.003000000     0.688000000
H    -1.486000000     7.293000000     1.268000000
H    -1.037000000     6.118000000     0.427000000
O    -2.705000000     4.939000000    -1.597000000
H    -3.092000000     4.313000000    -2.209000000
H    -1.983000000     4.460000000    -1.190000000
O     1.606000000    -5.404000000    -0.842000000
H     0.896000000    -6.043000000    -0.790000000
H     1.861000000    -5.254000000     0.068000000
O     2.825000000    -0.714000000     5.328000000
H     2.840000000    -0.732000000     4.371000000
H     2.609000000    -1.611000000     5.581000000
O    -1.817000000     1.993000000     4.764000000
H    -2.762000000     2.061000000     4.623000000
H    -1.700000000     2.188000000     5.694000000
O    -0.731000000     6.782000000    -5.211000000
H    -0.195000000     6.005000000    -5.053000000
H    -0.168000000     7.516000000    -4.966000000
O    -0.675000000    -6.846000000    -0.445000000
H    -1.552000000    -6.696000000    -0.797000000
H    -0.768000000    -6.707000000     0.498000000
O     0.620000000     8.647000000    -1.201000000
H     0.323000000     7.832000000    -0.797000000
H     0.708000000     9.259000000    -0.471000000
O    -3.332000000    -4.033000000    -2.178000000
H    -3.850000000    -3.641000000    -1.475000000
H    -2.485000000    -3.590000000    -2.128000000
O     4.855000000    -1.432000000     0.056000000
H     5.344000000    -1.692000000    -0.724000000
H     4.814000000    -2.226000000     0.589000000
O     2.540000000    -1.102000000     2.542000000
H     2.547000000    -0.878000000     1.611000000
H     2.914000000    -1.982000000     2.579000000
O     3.361000000    -6.760000000    -2.827000000
H     4.122000000    -7.045000000    -2.322000000
H     2.647000000    -6.732000000    -2.190000000
O    -1.592000000     2.351000000    -3.207000000
H    -1.106000000     2.774000000    -2.499000000
H    -2.498000000     2.329000000    -2.896000000
O    -3.172000000     8.414000000     0.784000000
H    -3.422000000     7.519000000     1.012000000
H    -2.793000000     8.341000000    -0.092000000
O     4.935000000    -4.153000000     0.795000000
H     4.599000000    -4.834000000     1.379000000
H     5.883000000    -4.171000000     0.928000000
O    -3.772000000    -2.012000000    -0.205000000
H    -3.546000000    -2.426000000     0.627000000
H    -3.311000000    -1.173000000    -0.189000000
O    -4.156000000     2.446000000    -2.514000000
H    -4.865000000     2.668000000    -1.910000000
H    -4.568000000     2.451000000    -3.378000000
O    -5.288000000     3.651000000    -0.378000000
H    -4.591000000     4.267000000    -0.154000000
H    -6.003000000     4.203000000    -0.696000000
O     0.953000000     4.586000000     1.977000000
H     0.116000000     4.199000000     1.721000000
H     1.517000000     3.835000000     2.164000000
O    -2.005000000    -3.472000000    -5.014000000
H    -1.714000000    -2.974000000    -4.250000000
H    -1.957000000    -4.387000000    -4.735000000
O     1.003000000     4.815000000    -4.730000000
H     1.294000000     3.956000000    -5.038000000
H     1.173000000     4.802000000    -3.788000000
O     3.387000000     3.275000000    -1.450000000
H     3.404000000     4.054000000    -0.894000000
H     2.995000000     3.575000000    -2.270000000
O    -2.881000000     7.573000000    -2.093000000
H    -3.818000000     7.416000000    -2.208000000
H    -2.498000000     6.698000000    -2.025000000
O     1.632000000     6.669000000     3.230000000
H     2.056000000     7.165000000     2.530000000
H     1.273000000     5.897000000     2.793000000
O    -0.514000000    -0.518000000    -6.674000000
H    -1.359000000    -0.967000000    -6.668000000
H    -0.051000000    -0.869000000    -5.913000000
O     2.796000000    -3.734000000     3.835000000
H     2.395000000    -3.868000000     4.694000000
H     3.657000000    -3.361000000     4.028000000
O    -3.428000000    -0.156000000    -3.642000000
H    -3.599000000     0.702000000    -3.254000000
H    -4.296000000    -0.537000000    -3.774000000
O    -3.032000000    -2.644000000     2.297000000
H    -2.571000000    -2.165000000     2.986000000
H    -3.439000000    -3.382000000     2.750000000
O    -1.572000000    -3.752000000     4.574000000
H    -1.372000000    -3.983000000     5.481000000
H    -2.359000000    -4.256000000     4.367000000
O    -1.288000000     1.982000000    -6.084000000
H    -1.287000000     1.982000000    -5.127000000
H    -1.016000000     1.097000000    -6.325000000
