144
-2795.56381
O     2.315000000    -1.152000000     4.822000000
H     2.732000000    -0.674000000     5.539000000
H     1.429000000    -0.794000000     4.779000000
O    -3.928000000     4.298000000     2.044000000
H    -3.495000000     5.152000000     2.042000000
H    -3.307000000     3.714000000     1.608000000
O     5.487000000    -0.569000000     1.373000000
H     6.002000000    -1.170000000     0.835000000
H     5.348000000    -1.042000000     2.193000000
O     0.119000000     1.450000000    -3.128000000
H     0.462000000     1.072000000    -2.318000000
H    -0.709000000     0.993000000    -3.274000000
O     1.713000000    -3.545000000    -3.472000000
H     0.992000000    -3.836000000    -2.913000000
H     1.703000000    -2.591000000    -3.396000000
O    -3.524000000    -2.961000000     0.332000000
H    -3.762000000    -3.566000000    -0.371000000
H    -3.587000000    -3.485000000     1.130000000
O     4.923000000    -1.634000000     3.842000000
H     5.558000000    -1.792000000     4.540000000
H     4.190000000    -1.200000000     4.280000000
O     4.556000000    -6.256000000     2.783000000
H     4.132000000    -5.426000000     2.999000000
H     5.215000000    -6.373000000     3.468000000
O    -0.879000000    -4.328000000     1.290000000
H    -1.278000000    -4.392000000     0.422000000
H    -0.093000000    -4.871000000     1.232000000
O     2.515000000     3.190000000     2.402000000
H     2.170000000     3.234000000     1.510000000
H     2.034000000     3.866000000     2.878000000
O    -6.233000000     3.513000000     2.915000000
H    -6.634000000     3.588000000     2.049000000
H    -5.361000000     3.893000000     2.808000000
O    -1.173000000    -3.313000000     3.792000000
H    -1.328000000    -2.375000000     3.681000000
H    -0.974000000    -3.629000000     2.911000000
O     4.859000000     1.832000000     3.000000000
H     4.020000000     2.265000000     2.845000000
H     4.943000000     1.207000000     2.281000000
O     3.906000000    -4.848000000     0.159000000
H     4.462000000    -5.240000000     0.832000000
H     3.458000000    -4.130000000     0.608000000
O     6.013000000    -2.612000000    -2.826000000
H     5.553000000    -1.779000000    -2.927000000
H     5.316000000    -3.255000000    -2.692000000
O    -3.247000000     7.000000000     1.723000000
H    -3.781000000     6.766000000     0.964000000
H    -2.526000000     7.514000000     1.361000000
O    -5.747000000     1.335000000     0.835000000
H    -4.880000000     1.631000000     0.557000000
H    -5.811000000     1.607000000     1.750000000
O    -2.393000000     5.592000000    -1.097000000
H    -2.032000000     4.767000000    -0.772000000
H    -1.908000000     6.268000000    -0.625000000
O    -2.189000000     1.713000000     5.278000000
H    -1.990000000     2.449000000     4.700000000
H    -3.145000000     1.705000000     5.337000000
O    -7.468000000     1.170000000    -2.267000000
H    -7.630000000     1.967000000    -1.762000000
H    -6.515000000     1.079000000    -2.272000000
O     3.418000000     2.739000000    -1.961000000
H     2.939000000     2.796000000    -2.788000000
H     3.693000000     3.638000000    -1.782000000
O     4.109000000    -4.448000000    -2.710000000
H     3.274000000    -4.202000000    -3.110000000
H     3.873000000    -4.767000000    -1.839000000
O    -2.875000000     3.945000000    -3.897000000
H    -2.599000000     3.039000000    -4.037000000
H    -2.138000000     4.471000000    -4.207000000
O    -2.298000000    -1.265000000     2.146000000
H    -1.918000000    -0.594000000     1.579000000
H    -2.828000000    -1.804000000     1.558000000
O     7.058000000    -2.420000000    -0.012000000
H     6.655000000    -2.390000000    -0.880000000
H     7.114000000    -3.353000000     0.193000000
O     4.582000000    -0.351000000    -3.231000000
H     3.680000000    -0.575000000    -3.461000000
H     4.501000000     0.416000000    -2.664000000
O    -7.149000000    -0.828000000     0.450000000
H    -6.607000000    -0.062000000     0.643000000
H    -6.589000000    -1.576000000     0.659000000
O    -4.602000000     0.765000000    -2.047000000
H    -3.934000000     0.991000000    -2.694000000
H    -4.255000000     1.096000000    -1.219000000
O    -5.384000000    -2.117000000    -1.669000000
H    -4.611000000    -1.843000000    -1.174000000
H    -5.759000000    -1.300000000    -1.998000000
O     3.458000000    -3.666000000     2.808000000
H     3.974000000    -2.893000000     3.035000000
H     2.676000000    -3.602000000     3.357000000
O    -7.163000000     4.727000000    -2.734000000
H    -6.464000000     4.424000000    -2.155000000
H    -7.495000000     5.521000000    -2.314000000
O    -2.521000000     0.830000000    -4.037000000
H    -2.643000000    -0.119000000    -4.038000000
H    -2.432000000     1.062000000    -4.961000000
O     5.458000000     1.314000000    -0.625000000
H     4.674000000     1.703000000    -1.012000000
H     5.124000000     0.717000000     0.045000000
O     1.164000000    -5.946000000     2.227000000
H     1.796000000    -5.229000000     2.288000000
H     1.210000000    -6.379000000     3.079000000
O    -7.238000000     4.009000000     0.295000000
H    -6.349000000     3.911000000    -0.045000000
H    -7.544000000     4.839000000    -0.071000000
O    -0.439000000     5.132000000     2.038000000
H    -0.636000000     4.406000000     1.446000000
H    -0.905000000     5.880000000     1.664000000
O     1.232000000     2.479000000     5.247000000
H     2.119000000     2.837000000     5.275000000
H     1.357000000     1.541000000     5.097000000
O    -4.730000000     4.281000000    -1.109000000
H    -3.988000000     4.885000000    -1.105000000
H    -4.343000000     3.424000000    -0.929000000
O     2.073000000    -0.465000000    -4.054000000
H     1.202000000    -0.825000000    -4.222000000
H     2.294000000     0.010000000    -4.855000000
O     1.900000000     4.262000000    -0.133000000
H     1.980000000     5.203000000    -0.290000000
H     2.577000000     3.869000000    -0.684000000
O     0.104000000     4.383000000    -2.254000000
H     0.495000000     4.154000000    -1.411000000
H     0.040000000     3.551000000    -2.723000000
O    -0.890000000    -4.548000000    -1.618000000
H    -1.144000000    -5.459000000    -1.472000000
H    -1.707000000    -4.106000000    -1.848000000
O    -1.011000000     7.485000000     0.342000000
H    -1.099000000     8.247000000    -0.230000000
H    -0.097000000     7.216000000     0.243000000
O     2.062000000     6.324000000     2.716000000
H     2.075000000     7.179000000     2.286000000
H     1.247000000     5.919000000     2.419000000
O    -0.420000000    -1.647000000    -3.837000000
H    -0.503000000    -2.035000000    -4.707000000
H    -1.075000000    -2.102000000    -3.307000000
O     0.731000000    -7.112000000    -0.327000000
H     0.988000000    -6.767000000     0.528000000
H     0.257000000    -7.919000000    -0.128000000
O    -0.823000000     3.953000000     4.452000000
H    -0.583000000     4.297000000     3.592000000
H    -0.073000000     3.421000000     4.716000000
O    -3.364000000    -3.644000000    -3.307000000
H    -4.207000000    -3.626000000    -2.853000000
H    -3.460000000    -3.007000000    -4.016000000
