144
-2834.79133
O    -5.855000000     1.757000000    -1.527000000
H    -6.457000000     1.671000000    -0.788000000
H    -5.039000000     1.363000000    -1.217000000
O     4.176000000    -1.959000000    -3.460000000
H     4.932000000    -2.434000000    -3.805000000
H     3.600000000    -2.643000000    -3.118000000
O     3.521000000    -5.260000000     2.825000000
H     4.203000000    -5.791000000     3.237000000
H     3.860000000    -4.365000000     2.863000000
O     0.582000000    -3.057000000    -3.847000000
H     0.124000000    -3.113000000    -4.686000000
H     0.440000000    -2.156000000    -3.556000000
O     1.553000000    -5.553000000    -2.787000000
H     1.521000000    -5.777000000    -1.857000000
H     0.897000000    -4.864000000    -2.890000000
O    -1.688000000    -4.692000000    -0.389000000
H    -0.800000000    -4.630000000    -0.037000000
H    -2.255000000    -4.653000000     0.381000000
O     1.647000000     1.366000000     4.441000000
H     2.544000000     1.577000000     4.183000000
H     1.739000000     0.639000000     5.056000000
O     1.129000000    -6.533000000    -0.336000000
H     0.479000000    -7.235000000    -0.365000000
H     0.968000000    -6.092000000     0.498000000
O    -2.137000000    -6.636000000    -2.576000000
H    -2.180000000    -5.800000000    -2.112000000
H    -2.521000000    -7.268000000    -1.968000000
O     2.992000000     2.386000000    -2.136000000
H     2.351000000     1.903000000    -2.658000000
H     2.612000000     3.259000000    -2.039000000
O    -3.724000000     1.000000000     4.219000000
H    -3.005000000     1.346000000     3.691000000
H    -3.977000000     1.729000000     4.786000000
O     3.175000000    -2.573000000     3.239000000
H     2.414000000    -2.013000000     3.091000000
H     3.890000000    -2.133000000     2.779000000
O     5.029000000     0.289000000    -2.190000000
H     4.889000000    -0.328000000    -2.909000000
H     4.418000000     1.004000000    -2.366000000
O     5.247000000    -1.402000000     1.845000000
H     5.719000000    -2.143000000     1.465000000
H     5.382000000    -0.688000000     1.222000000
O    -7.555000000     0.691000000     1.007000000
H    -7.157000000     0.935000000     1.842000000
H    -7.610000000    -0.264000000     1.038000000
O    -6.917000000     4.287000000     0.110000000
H    -7.252000000     5.034000000    -0.385000000
H    -7.679000000     3.720000000     0.234000000
O    -4.418000000    -1.078000000    -2.533000000
H    -4.226000000    -0.475000000    -1.814000000
H    -4.462000000    -0.518000000    -3.309000000
O    -4.048000000     5.848000000     2.813000000
H    -4.611000000     5.100000000     3.012000000
H    -4.389000000     6.556000000     3.358000000
O    -4.641000000    -1.759000000     0.589000000
H    -4.559000000    -0.858000000     0.276000000
H    -5.581000000    -1.880000000     0.723000000
O     7.612000000     0.855000000    -1.771000000
H     8.067000000     0.285000000    -1.151000000
H     6.691000000     0.605000000    -1.693000000
O    -1.896000000     2.245000000     2.840000000
H    -2.346000000     2.289000000     1.996000000
H    -1.211000000     2.911000000     2.781000000
O    -0.650000000     3.825000000    -3.602000000
H    -0.150000000     4.204000000    -4.325000000
H    -0.846000000     2.933000000    -3.889000000
O     3.277000000    -4.587000000    -4.600000000
H     2.419000000    -4.172000000    -4.506000000
H     3.304000000    -5.243000000    -3.904000000
O    -2.004000000     1.439000000    -3.066000000
H    -2.357000000     1.338000000    -2.183000000
H    -2.762000000     1.675000000    -3.601000000
O     0.304000000    -0.541000000     2.820000000
H     1.077000000    -0.085000000     3.152000000
H     0.054000000    -0.051000000     2.037000000
O    -3.652000000    -4.127000000     1.575000000
H    -3.706000000    -3.790000000     2.470000000
H    -3.787000000    -3.357000000     1.022000000
O    -1.805000000     7.181000000    -1.253000000
H    -1.270000000     6.408000000    -1.072000000
H    -2.593000000     7.056000000    -0.723000000
O    -3.647000000    -3.693000000    -2.269000000
H    -3.754000000    -2.743000000    -2.295000000
H    -2.905000000    -3.835000000    -1.682000000
O    -5.990000000     3.604000000    -3.486000000
H    -5.313000000     4.264000000    -3.639000000
H    -5.613000000     3.025000000    -2.824000000
O    -4.015000000    -3.561000000     4.064000000
H    -3.486000000    -2.772000000     3.950000000
H    -3.881000000    -3.810000000     4.978000000
O     1.752000000     1.459000000    -4.676000000
H     1.544000000     0.587000000    -4.341000000
H     2.091000000     1.302000000    -5.557000000
O     0.748000000    -4.068000000     1.534000000
H     1.560000000    -4.157000000     2.032000000
H     0.533000000    -3.137000000     1.590000000
O     5.114000000     2.468000000     0.007000000
H     4.662000000     3.182000000     0.457000000
H     4.443000000     2.070000000    -0.547000000
O     3.732000000     4.329000000     1.612000000
H     4.351000000     5.009000000     1.879000000
H     2.881000000     4.768000000     1.610000000
O     0.339000000     3.676000000     3.414000000
H     0.435000000     4.179000000     4.223000000
H     0.760000000     2.837000000     3.602000000
O     4.601000000     2.013000000     3.161000000
H     4.083000000     2.811000000     3.265000000
H     4.649000000     1.879000000     2.215000000
O    -2.104000000     4.679000000     1.287000000
H    -2.786000000     5.159000000     1.755000000
H    -2.522000000     3.857000000     1.030000000
O    -0.675000000    -6.509000000     2.544000000
H     0.059000000    -7.080000000     2.772000000
H    -0.268000000    -5.669000000     2.333000000
O     0.261000000    -0.431000000    -2.955000000
H    -0.600000000    -0.040000000    -3.106000000
H     0.332000000    -0.494000000    -2.003000000
O    -4.435000000     6.064000000    -1.060000000
H    -5.023000000     5.339000000    -0.849000000
H    -4.918000000     6.586000000    -1.700000000
O    -7.259000000    -2.084000000    -2.287000000
H    -6.477000000    -1.534000000    -2.340000000
H    -6.994000000    -2.825000000    -1.742000000
O    -5.001000000     3.335000000     1.700000000
H    -4.309000000     2.796000000     1.317000000
H    -5.488000000     3.671000000     0.947000000
O    -0.384000000     4.997000000    -0.749000000
H    -1.038000000     4.583000000    -0.186000000
H    -0.308000000     4.409000000    -1.500000000
O    -4.385000000     1.083000000    -4.476000000
H    -4.493000000     0.438000000    -5.175000000
H    -5.190000000     1.600000000    -4.500000000
O     0.787000000     5.572000000     1.568000000
H     0.133000000     5.482000000     0.875000000
H     0.410000000     5.108000000     2.315000000
O     2.382000000     4.889000000    -1.373000000
H     1.482000000     5.187000000    -1.241000000
H     2.886000000     5.338000000    -0.694000000
O    -6.161000000     0.915000000     3.141000000
H    -6.447000000     0.442000000     3.922000000
H    -5.213000000     0.996000000     3.244000000
O    -2.493000000    -1.437000000     3.348000000
H    -1.640000000    -1.308000000     2.934000000
H    -2.734000000    -0.570000000     3.674000000
