144
-2791.14451
O    -3.479000000    -2.461000000    -0.926000000
H    -3.683000000    -3.340000000    -0.606000000
H    -4.311000000    -2.132000000    -1.267000000
O    -5.468000000     2.546000000     2.048000000
H    -4.724000000     2.258000000     1.519000000
H    -5.127000000     2.581000000     2.942000000
O    -5.586000000     2.486000000    -5.788000000
H    -4.868000000     2.126000000    -5.268000000
H    -5.701000000     3.376000000    -5.453000000
O    -5.636000000     1.795000000    -2.192000000
H    -4.704000000     1.598000000    -2.102000000
H    -5.880000000     2.187000000    -1.353000000
O     0.818000000    -3.958000000     3.436000000
H     1.228000000    -3.738000000     4.272000000
H     0.266000000    -3.203000000     3.234000000
O     3.740000000    -2.140000000     4.742000000
H     3.981000000    -2.084000000     5.667000000
H     4.234000000    -2.890000000     4.411000000
O     1.794000000     2.433000000     2.039000000
H     2.285000000     1.628000000     2.201000000
H     1.063000000     2.396000000     2.656000000
O    -5.223000000     5.793000000     2.058000000
H    -4.762000000     5.437000000     1.298000000
H    -5.323000000     5.046000000     2.649000000
O     3.989000000    -6.450000000     0.807000000
H     4.112000000    -5.504000000     0.886000000
H     4.591000000    -6.713000000     0.111000000
O     1.358000000     3.539000000     5.107000000
H     1.103000000     2.625000000     4.988000000
H     2.308000000     3.541000000     4.990000000
O    -3.794000000    -1.092000000     1.709000000
H    -3.831000000    -0.160000000     1.491000000
H    -3.231000000    -1.473000000     1.035000000
O     6.174000000     0.442000000     0.446000000
H     6.206000000     1.254000000     0.952000000
H     6.499000000    -0.228000000     1.046000000
O     1.188000000     0.920000000     5.291000000
H     1.726000000     0.347000000     5.838000000
H     0.287000000     0.670000000     5.495000000
O     3.735000000     0.666000000    -3.422000000
H     4.637000000     0.711000000    -3.106000000
H     3.251000000     1.262000000    -2.851000000
O    -8.007000000     3.228000000    -3.082000000
H    -8.235000000     3.058000000    -2.168000000
H    -7.059000000     3.104000000    -3.120000000
O    -3.491000000     1.082000000    -4.466000000
H    -3.348000000     1.166000000    -3.523000000
H    -3.566000000     0.139000000    -4.614000000
O    -3.596000000     4.476000000     0.087000000
H    -3.141000000     4.785000000    -0.697000000
H    -3.726000000     3.540000000    -0.064000000
O    -0.797000000    -2.911000000    -2.097000000
H    -1.720000000    -2.683000000    -1.989000000
H    -0.324000000    -2.231000000    -1.618000000
O    -0.870000000    -1.978000000     3.682000000
H    -1.267000000    -1.770000000     4.528000000
H    -0.608000000    -1.129000000     3.325000000
O    -2.849000000    -1.671000000    -3.881000000
H    -3.629000000    -2.213000000    -4.006000000
H    -2.743000000    -1.621000000    -2.931000000
O     3.098000000     2.021000000    -0.835000000
H     3.232000000     1.081000000    -0.718000000
H     2.851000000     2.338000000     0.033000000
O     4.893000000     3.314000000    -2.225000000
H     5.485000000     3.640000000    -1.547000000
H     4.109000000     3.042000000    -1.748000000
O     6.443000000     0.375000000    -2.307000000
H     7.134000000     0.978000000    -2.581000000
H     6.369000000     0.509000000    -1.362000000
O    -5.014000000    -1.109000000     4.523000000
H    -4.666000000    -1.384000000     3.675000000
H    -5.871000000    -0.734000000     4.320000000
O     2.196000000    -4.737000000    -3.707000000
H     2.305000000    -3.788000000    -3.757000000
H     1.981000000    -4.906000000    -2.789000000
O    -1.456000000     3.384000000    -2.851000000
H    -2.030000000     2.746000000    -2.425000000
H    -1.174000000     2.951000000    -3.657000000
O    -7.158000000     0.167000000    -3.662000000
H    -7.442000000     0.622000000    -4.455000000
H    -6.697000000     0.834000000    -3.154000000
O    -2.073000000     5.979000000    -2.184000000
H    -1.617000000     5.206000000    -2.516000000
H    -1.632000000     6.717000000    -2.606000000
O    -2.601000000     4.491000000    -5.462000000
H    -2.525000000     3.775000000    -4.830000000
H    -1.706000000     4.634000000    -5.770000000
O    -6.920000000     0.120000000     2.387000000
H    -6.242000000     0.795000000     2.388000000
H    -6.752000000    -0.386000000     1.592000000
O    -0.078000000     2.320000000    -5.251000000
H     0.743000000     2.204000000    -5.729000000
H    -0.724000000     1.832000000    -5.761000000
O    -0.234000000    -3.148000000    -5.000000000
H    -0.559000000    -2.378000000    -5.467000000
H     0.128000000    -2.799000000    -4.185000000
O     3.862000000     0.789000000     3.792000000
H     4.415000000     0.037000000     4.002000000
H     3.597000000     1.137000000     4.643000000
O     5.862000000    -1.552000000    -4.333000000
H     6.351000000    -1.189000000    -3.594000000
H     6.523000000    -2.000000000    -4.860000000
O    -1.335000000     0.043000000     5.815000000
H    -1.583000000     0.935000000     5.571000000
H    -2.135000000    -0.337000000     6.178000000
O     2.228000000     4.255000000    -2.908000000
H     1.551000000     4.932000000    -2.907000000
H     1.801000000     3.489000000    -2.524000000
O    -1.887000000     3.921000000     2.737000000
H    -1.486000000     4.778000000     2.594000000
H    -2.334000000     3.725000000     1.913000000
O    -1.598000000    -1.220000000    -6.074000000
H    -1.587000000    -0.293000000    -6.310000000
H    -2.040000000    -1.247000000    -5.226000000
O    -2.469000000     2.160000000     4.776000000
H    -3.265000000     2.615000000     5.051000000
H    -2.142000000     2.674000000     4.038000000
O     2.197000000    -6.479000000     3.014000000
H     2.935000000    -6.442000000     2.407000000
H     1.838000000    -5.592000000     3.010000000
O    -6.114000000     5.207000000    -1.702000000
H    -6.833000000     5.834000000    -1.623000000
H    -6.303000000     4.541000000    -1.041000000
O    -6.847000000     3.174000000    -0.067000000
H    -7.770000000     3.100000000     0.176000000
H    -6.378000000     3.167000000     0.767000000
O     2.679000000     4.784000000     0.874000000
H     1.869000000     5.151000000     0.521000000
H     2.394000000     4.039000000     1.404000000
O    -5.892000000    -1.619000000    -1.906000000
H    -6.576000000    -1.652000000    -1.238000000
H    -6.236000000    -1.023000000    -2.572000000
O     4.508000000    -3.701000000     1.027000000
H     4.796000000    -3.216000000     0.254000000
H     4.102000000    -3.040000000     1.587000000
O     5.474000000     2.624000000     2.127000000
H     5.537000000     3.467000000     2.576000000
H     4.820000000     2.135000000     2.625000000
O     3.213000000    -2.124000000    -3.997000000
H     2.870000000    -1.234000000    -4.076000000
H     4.149000000    -2.037000000    -4.178000000
O     5.505000000    -2.398000000    -1.126000000
H     5.989000000    -2.951000000    -1.739000000
H     5.967000000    -1.560000000    -1.144000000
