144
-2808.87871
O    -3.144000000     2.510000000    -2.913000000
H    -3.967000000     2.933000000    -2.667000000
H    -2.501000000     2.861000000    -2.297000000
O    -4.786000000     0.945000000    -5.138000000
H    -4.976000000     0.492000000    -5.959000000
H    -3.943000000     0.588000000    -4.857000000
O     3.307000000    -1.397000000     4.624000000
H     3.561000000    -1.118000000     5.503000000
H     3.234000000    -0.583000000     4.126000000
O    -2.054000000    -0.504000000     4.739000000
H    -1.195000000    -0.740000000     5.089000000
H    -2.315000000    -1.260000000     4.214000000
O     3.985000000     0.885000000     3.373000000
H     3.593000000     1.750000000     3.254000000
H     4.918000000     1.021000000     3.209000000
O    -5.310000000     4.355000000     1.172000000
H    -5.620000000     5.193000000     1.516000000
H    -4.440000000     4.546000000     0.823000000
O    -0.276000000    -6.504000000    -0.292000000
H    -0.968000000    -6.745000000    -0.908000000
H    -0.743000000    -6.180000000     0.478000000
O     4.407000000     1.674000000    -3.159000000
H     3.477000000     1.516000000    -2.995000000
H     4.725000000     0.856000000    -3.542000000
O    -3.055000000     7.148000000     2.704000000
H    -2.500000000     6.368000000     2.719000000
H    -3.406000000     7.175000000     1.814000000
O    -2.280000000    -3.138000000     3.892000000
H    -2.811000000    -3.327000000     4.666000000
H    -1.381000000    -3.314000000     4.169000000
O     4.945000000    -3.454000000     3.845000000
H     4.194000000    -2.937000000     4.138000000
H     4.974000000    -4.196000000     4.448000000
O     4.133000000     3.561000000     5.020000000
H     3.809000000     3.298000000     4.159000000
H     3.356000000     3.875000000     5.483000000
O    -2.106000000     0.513000000    -4.542000000
H    -2.299000000     1.221000000    -3.928000000
H    -1.988000000     0.952000000    -5.385000000
O    -1.104000000     6.609000000    -0.222000000
H    -0.999000000     5.659000000    -0.160000000
H    -0.698000000     6.948000000     0.576000000
O    -3.959000000    -2.670000000     1.979000000
H    -3.262000000    -2.864000000     2.606000000
H    -3.702000000    -1.834000000     1.588000000
O     0.279000000    -0.588000000     6.198000000
H     0.693000000     0.265000000     6.064000000
H     0.149000000    -0.645000000     7.145000000
O    -0.968000000     8.443000000    -2.830000000
H    -0.734000000     7.994000000    -2.017000000
H    -1.456000000     7.790000000    -3.332000000
O     1.933000000     0.841000000    -3.771000000
H     1.255000000     0.199000000    -3.982000000
H     2.036000000     1.352000000    -4.574000000
O     3.161000000     3.472000000     2.379000000
H     3.437000000     3.862000000     1.550000000
H     2.284000000     3.824000000     2.529000000
O    -2.848000000     6.417000000    -3.251000000
H    -3.621000000     6.345000000    -3.810000000
H    -2.377000000     5.595000000    -3.385000000
O     2.168000000    -6.814000000     4.749000000
H     1.541000000    -7.529000000     4.865000000
H     1.982000000    -6.471000000     3.875000000
O     2.266000000     4.041000000    -4.116000000
H     2.333000000     4.958000000    -3.849000000
H     2.995000000     3.609000000    -3.670000000
O    -2.879000000    -1.878000000    -3.832000000
H    -2.247000000    -1.195000000    -4.058000000
H    -3.041000000    -2.337000000    -4.656000000
O     4.844000000     5.680000000     0.438000000
H     3.940000000     5.984000000     0.357000000
H     5.363000000     6.350000000    -0.007000000
O     2.658000000    -4.244000000     5.741000000
H     2.499000000    -5.015000000     5.197000000
H     1.919000000    -3.664000000     5.557000000
O    -4.134000000    -4.424000000    -2.285000000
H    -4.955000000    -4.178000000    -1.859000000
H    -3.706000000    -3.590000000    -2.478000000
O    -2.706000000    -6.638000000    -1.654000000
H    -2.990000000    -5.764000000    -1.922000000
H    -3.511000000    -7.081000000    -1.389000000
O     3.832000000    -4.710000000     1.595000000
H     4.270000000    -4.670000000     0.744000000
H     4.488000000    -4.395000000     2.217000000
O     4.447000000    -2.541000000    -0.815000000
H     5.275000000    -3.007000000    -0.932000000
H     4.584000000    -1.999000000    -0.038000000
O    -2.152000000     4.370000000     2.772000000
H    -2.449000000     4.254000000     1.869000000
H    -2.526000000     3.626000000     3.244000000
O    -1.352000000    -5.461000000     1.921000000
H    -1.278000000    -5.997000000     2.711000000
H    -1.077000000    -4.587000000     2.198000000
O     4.566000000    -1.495000000     1.708000000
H     3.965000000    -0.792000000     1.953000000
H     4.447000000    -2.160000000     2.386000000
O     0.143000000     4.441000000     5.518000000
H     0.515000000     4.237000000     4.660000000
H     0.819000000     4.960000000     5.954000000
O    -0.446000000     6.580000000    -6.007000000
H    -1.127000000     6.174000000    -6.543000000
H    -0.409000000     6.040000000    -5.217000000
O     0.273000000     7.368000000     2.058000000
H     0.604000000     7.655000000     2.909000000
H     1.060000000     7.175000000     1.548000000
O     5.029000000     4.103000000    -2.205000000
H     4.917000000     3.247000000    -2.619000000
H     4.630000000     4.004000000    -1.340000000
O    -4.159000000    -5.562000000     1.441000000
H    -4.051000000    -4.625000000     1.278000000
H    -3.270000000    -5.880000000     1.602000000
O     0.398000000    -2.786000000     4.618000000
H     0.787000000    -2.413000000     3.827000000
H     0.550000000    -2.125000000     5.294000000
O     2.252000000    -1.926000000    -2.418000000
H     1.969000000    -1.023000000    -2.278000000
H     2.827000000    -2.115000000    -1.676000000
O     0.979000000    -4.352000000    -3.035000000
H     0.367000000    -4.078000000    -3.718000000
H     1.426000000    -3.546000000    -2.776000000
O    -4.971000000    -0.157000000    -1.109000000
H    -4.247000000     0.400000000    -1.394000000
H    -5.385000000    -0.446000000    -1.922000000
O     1.937000000     6.363000000     0.372000000
H     1.861000000     6.861000000    -0.442000000
H     1.384000000     5.593000000     0.234000000
O    -3.065000000     4.600000000    -0.246000000
H    -2.505000000     3.953000000    -0.675000000
H    -2.712000000     5.445000000    -0.524000000
O     1.573000000    -6.249000000     2.236000000
H     2.451000000    -6.224000000     1.854000000
H     1.034000000    -5.742000000     1.630000000
O     0.370000000     4.174000000     2.527000000
H    -0.564000000     4.242000000     2.727000000
H     0.404000000     4.081000000     1.575000000
O    -0.479000000     4.690000000    -3.748000000
H     0.403000000     4.432000000    -4.014000000
H    -0.674000000     4.135000000    -2.993000000
O     0.272000000    -1.069000000    -4.862000000
H     0.434000000    -1.190000000    -5.798000000
H    -0.589000000    -0.652000000    -4.820000000
O     2.308000000    -6.499000000    -0.704000000
H     1.381000000    -6.693000000    -0.570000000
H     2.312000000    -5.703000000    -1.236000000
