144
-2812.72435
O    -3.314000000     6.369000000    -4.094000000
H    -4.121000000     5.865000000    -3.987000000
H    -2.621000000     5.774000000    -3.809000000
O    -2.027000000    -3.117000000     5.015000000
H    -1.199000000    -3.204000000     4.542000000
H    -2.199000000    -2.176000000     5.026000000
O    -5.007000000     4.187000000    -1.708000000
H    -5.156000000     4.037000000    -2.641000000
H    -4.623000000     3.369000000    -1.392000000
O    -5.252000000     0.077000000    -1.922000000
H    -5.485000000    -0.543000000    -1.231000000
H    -4.685000000     0.716000000    -1.490000000
O    -6.317000000     1.029000000     0.684000000
H    -6.355000000     0.077000000     0.778000000
H    -5.413000000     1.209000000     0.428000000
O     1.286000000     1.574000000    -5.899000000
H     1.090000000     0.689000000    -5.592000000
H     2.213000000     1.544000000    -6.138000000
O     2.486000000    -3.422000000     5.234000000
H     3.258000000    -3.004000000     4.852000000
H     2.665000000    -3.440000000     6.174000000
O    -7.254000000     4.220000000    -0.029000000
H    -6.772000000     3.912000000    -0.796000000
H    -6.864000000     3.745000000     0.705000000
O     1.540000000     2.851000000    -3.001000000
H     2.296000000     2.358000000    -2.681000000
H     1.485000000     2.630000000    -3.930000000
O    -1.634000000    -4.158000000     1.438000000
H    -1.051000000    -4.103000000     2.195000000
H    -1.059000000    -4.387000000     0.708000000
O     4.601000000     3.056000000     0.542000000
H     4.609000000     3.660000000    -0.200000000
H     3.696000000     3.069000000     0.852000000
O     5.201000000     0.031000000     3.048000000
H     5.935000000     0.587000000     3.313000000
H     5.289000000    -0.044000000     2.098000000
O    -3.792000000    -5.598000000     2.242000000
H    -4.298000000    -5.466000000     1.440000000
H    -3.046000000    -5.005000000     2.155000000
O    -7.215000000     2.562000000    -2.425000000
H    -6.552000000     1.889000000    -2.578000000
H    -8.008000000     2.072000000    -2.207000000
O     0.818000000    -2.455000000    -2.319000000
H     0.348000000    -1.889000000    -1.706000000
H     0.789000000    -3.322000000    -1.916000000
O    -3.384000000     1.194000000     3.120000000
H    -4.007000000     1.881000000     3.353000000
H    -3.530000000     1.045000000     2.185000000
O    -4.962000000     4.110000000    -4.529000000
H    -5.485000000     4.053000000    -5.328000000
H    -4.144000000     3.663000000    -4.746000000
O    -2.089000000    -0.120000000     5.170000000
H    -2.749000000    -0.188000000     5.861000000
H    -2.566000000     0.230000000     4.418000000
O    -5.750000000     0.491000000    -4.913000000
H    -4.910000000     0.944000000    -4.841000000
H    -5.771000000    -0.098000000    -4.158000000
O     0.009000000    -4.578000000    -0.618000000
H    -0.362000000    -5.027000000    -1.378000000
H     0.687000000    -5.172000000    -0.296000000
O     2.625000000     0.704000000     4.849000000
H     2.506000000     0.147000000     4.080000000
H     3.099000000     1.468000000     4.520000000
O     2.667000000    -0.537000000    -4.197000000
H     2.239000000    -1.018000000    -4.905000000
H     2.071000000    -0.623000000    -3.453000000
O    -4.970000000    -2.303000000     3.525000000
H    -4.679000000    -2.057000000     2.647000000
H    -5.800000000    -2.758000000     3.383000000
O    -1.529000000     4.599000000    -2.364000000
H    -1.944000000     5.012000000    -1.607000000
H    -1.822000000     3.689000000    -2.332000000
O    -4.057000000    -2.652000000    -3.258000000
H    -4.439000000    -1.806000000    -3.024000000
H    -3.193000000    -2.436000000    -3.608000000
O    -0.340000000     2.487000000     3.012000000
H    -0.819000000     1.728000000     2.680000000
H    -0.842000000     3.241000000     2.703000000
O     0.285000000    -3.519000000     3.716000000
H     1.068000000    -3.342000000     4.238000000
H     0.577000000    -4.140000000     3.049000000
O    -1.303000000     3.142000000    -5.674000000
H    -1.696000000     2.396000000    -5.222000000
H    -0.458000000     2.816000000    -5.983000000
O    -9.018000000     2.140000000     1.536000000
H    -9.050000000     2.578000000     2.386000000
H    -8.096000000     1.912000000     1.418000000
O    -1.405000000     5.104000000     2.340000000
H    -1.899000000     5.741000000     2.856000000
H    -1.592000000     5.336000000     1.431000000
O    -3.579000000    -2.948000000    -0.282000000
H    -3.418000000    -3.083000000    -1.216000000
H    -2.880000000    -3.436000000     0.154000000
O    -2.843000000     1.452000000    -4.164000000
H    -2.801000000     1.537000000    -3.212000000
H    -2.452000000     0.597000000    -4.345000000
O     3.951000000     1.612000000    -2.764000000
H     4.398000000     0.821000000    -3.066000000
H     4.592000000     2.312000000    -2.890000000
O     6.304000000     0.918000000     0.345000000
H     5.751000000     1.696000000     0.419000000
H     7.171000000     1.261000000     0.130000000
O     2.070000000     3.780000000     1.698000000
H     1.802000000     3.938000000     0.793000000
H     1.294000000     3.407000000     2.116000000
O     1.562000000     4.388000000    -0.767000000
H     1.144000000     5.208000000    -1.032000000
H     1.410000000     3.794000000    -1.502000000
O    -4.323000000     4.427000000     3.980000000
H    -4.096000000     4.190000000     3.081000000
H    -3.684000000     5.098000000     4.219000000
O     3.264000000    -4.750000000     0.687000000
H     3.729000000    -4.505000000     1.486000000
H     3.741000000    -4.304000000    -0.014000000
O    -3.021000000     6.089000000    -0.406000000
H    -3.704000000     6.472000000     0.144000000
H    -2.937000000     6.695000000    -1.142000000
O     4.608000000     3.018000000     3.669000000
H     5.053000000     2.520000000     2.983000000
H     4.075000000     3.656000000     3.194000000
O    -5.681000000    -1.751000000     0.690000000
H    -6.299000000    -2.439000000     0.446000000
H    -4.853000000    -2.020000000     0.292000000
O     1.081000000    -5.601000000     2.251000000
H     1.749000000    -5.175000000     1.713000000
H     1.222000000    -6.537000000     2.111000000
O     5.068000000    -3.666000000     2.338000000
H     5.138000000    -3.296000000     3.218000000
H     5.770000000    -3.242000000     1.843000000
O    -4.047000000     3.866000000     1.247000000
H    -3.861000000     4.360000000     0.448000000
H    -3.819000000     2.962000000     1.029000000
O     0.246000000     6.532000000    -3.059000000
H     0.232000000     6.739000000    -3.993000000
H    -0.487000000     5.929000000    -2.936000000
O     6.905000000    -2.039000000    -1.414000000
H     6.485000000    -1.456000000    -2.048000000
H     6.763000000    -2.917000000    -1.767000000
O     4.879000000    -2.118000000     4.539000000
H     4.896000000    -1.230000000     4.183000000
H     5.393000000    -2.062000000     5.345000000
O     7.071000000    -1.867000000     1.288000000
H     7.147000000    -2.039000000     0.349000000
H     6.897000000    -0.927000000     1.345000000
