144
-2814.32573
O    -4.543000000     3.329000000    -4.087000000
H    -4.780000000     4.252000000    -4.179000000
H    -4.673000000     3.140000000    -3.157000000
O    -4.714000000     2.601000000    -1.522000000
H    -4.431000000     2.176000000    -0.713000000
H    -5.606000000     2.896000000    -1.339000000
O    -6.763000000     2.355000000     1.744000000
H    -5.809000000     2.427000000     1.785000000
H    -7.081000000     3.139000000     2.192000000
O    -0.500000000    -5.075000000     2.103000000
H    -0.406000000    -4.604000000     1.274000000
H    -1.021000000    -4.489000000     2.653000000
O     1.691000000    -5.613000000    -0.388000000
H     1.669000000    -4.797000000     0.112000000
H     2.524000000    -5.585000000    -0.857000000
O    -3.346000000     5.562000000    -0.762000000
H    -3.315000000     4.625000000    -0.952000000
H    -4.280000000     5.759000000    -0.681000000
O    -2.516000000    -3.934000000     3.726000000
H    -2.802000000    -3.612000000     4.580000000
H    -3.296000000    -3.877000000     3.174000000
O    -1.045000000    -0.279000000     7.267000000
H    -0.237000000     0.142000000     6.973000000
H    -1.549000000    -0.415000000     6.465000000
O    -1.436000000     4.089000000     3.783000000
H    -0.896000000     3.793000000     3.050000000
H    -1.680000000     4.986000000     3.554000000
O     0.504000000     1.823000000    -4.854000000
H     0.611000000     2.430000000    -5.587000000
H     1.090000000     2.160000000    -4.177000000
O     6.500000000    -0.415000000    -0.003000000
H     6.591000000    -1.334000000    -0.253000000
H     6.202000000     0.022000000    -0.800000000
O    -4.230000000    -0.803000000    -1.992000000
H    -4.679000000    -0.156000000    -2.536000000
H    -4.097000000    -0.360000000    -1.154000000
O     1.684000000    -1.969000000     5.553000000
H     1.257000000    -2.825000000     5.517000000
H     2.613000000    -2.170000000     5.669000000
O    -0.007000000     3.968000000    -0.850000000
H    -0.555000000     3.703000000    -1.588000000
H     0.794000000     4.302000000    -1.254000000
O     3.883000000    -1.499000000     2.757000000
H     4.165000000    -2.074000000     3.469000000
H     4.543000000    -0.805000000     2.735000000
O     2.732000000     3.427000000    -4.068000000
H     2.422000000     4.108000000    -3.472000000
H     3.175000000     3.905000000    -4.769000000
O    -4.582000000    -0.841000000     5.067000000
H    -5.082000000    -0.517000000     4.318000000
H    -3.723000000    -0.428000000     4.979000000
O     3.561000000    -3.075000000    -2.900000000
H     3.757000000    -4.008000000    -2.813000000
H     2.654000000    -2.993000000    -2.605000000
O    -8.174000000     0.378000000     0.262000000
H    -7.551000000     1.045000000     0.550000000
H    -8.858000000     0.870000000    -0.192000000
O    -2.574000000    -2.966000000    -1.500000000
H    -2.979000000    -3.638000000    -0.951000000
H    -3.264000000    -2.316000000    -1.631000000
O    -0.588000000     2.965000000     1.500000000
H    -0.572000000     2.010000000     1.438000000
H    -0.746000000     3.261000000     0.603000000
O     1.481000000    -2.231000000    -5.339000000
H     0.957000000    -2.432000000    -4.564000000
H     2.247000000    -2.800000000    -5.265000000
O    -3.041000000    -1.736000000    -5.507000000
H    -3.488000000    -1.425000000    -4.720000000
H    -2.299000000    -1.140000000    -5.613000000
O     6.423000000    -2.400000000    -3.928000000
H     5.564000000    -2.750000000    -3.691000000
H     6.484000000    -1.572000000    -3.451000000
O     0.660000000     0.442000000     4.813000000
H     1.070000000    -0.356000000     5.146000000
H     1.330000000     0.844000000     4.261000000
O    -1.525000000     3.012000000    -2.956000000
H    -1.200000000     2.688000000    -3.795000000
H    -2.477000000     2.945000000    -3.025000000
O    -0.627000000    -0.537000000    -5.502000000
H     0.204000000    -0.993000000    -5.638000000
H    -0.375000000     0.325000000    -5.170000000
O     3.321000000     0.549000000    -5.591000000
H     2.715000000     1.009000000    -6.172000000
H     2.930000000    -0.317000000    -5.473000000
O     2.042000000     3.583000000     2.045000000
H     2.380000000     2.723000000     2.296000000
H     1.102000000     3.447000000     1.931000000
O    -5.625000000    -0.343000000     2.395000000
H    -6.334000000     0.220000000     2.085000000
H    -4.913000000    -0.195000000     1.773000000
O     4.306000000     1.598000000    -3.396000000
H     3.607000000     2.244000000    -3.491000000
H     4.178000000     0.997000000    -4.130000000
O     0.277000000    -3.256000000    -3.171000000
H    -0.436000000    -2.647000000    -2.977000000
H     0.161000000    -3.968000000    -2.541000000
O     6.432000000     0.190000000    -2.558000000
H     5.660000000     0.468000000    -3.051000000
H     7.039000000     0.927000000    -2.626000000
O    -5.591000000     0.408000000    -4.065000000
H    -5.731000000     0.216000000    -4.992000000
H    -5.511000000     1.361000000    -4.027000000
O     2.910000000     1.333000000     3.443000000
H     3.750000000     1.778000000     3.556000000
H     3.144000000     0.418000000     3.287000000
O    -0.576000000    -2.847000000     0.374000000
H    -0.394000000    -1.907000000     0.368000000
H    -1.117000000    -2.991000000    -0.402000000
O     5.839000000     0.413000000     2.488000000
H     5.722000000     1.345000000     2.672000000
H     6.183000000     0.386000000     1.595000000
O    -4.925000000    -3.258000000     2.332000000
H    -5.702000000    -3.546000000     1.853000000
H    -4.984000000    -2.302000000     2.331000000
O    -2.118000000     0.206000000     4.631000000
H    -1.191000000     0.356000000     4.442000000
H    -2.562000000     0.380000000     3.801000000
O     4.074000000     4.077000000     0.302000000
H     3.372000000     3.912000000     0.932000000
H     3.879000000     3.495000000    -0.432000000
O     1.982000000    -3.537000000     1.451000000
H     1.077000000    -3.255000000     1.316000000
H     2.407000000    -2.789000000     1.870000000
O     6.298000000     3.088000000    -2.255000000
H     6.164000000     3.944000000    -2.662000000
H     5.457000000     2.642000000    -2.354000000
O    -3.995000000     3.261000000     2.856000000
H    -3.685000000     2.428000000     2.501000000
H    -3.256000000     3.595000000     3.365000000
O    -3.129000000     2.914000000     6.025000000
H    -2.711000000     3.040000000     5.173000000
H    -3.876000000     2.344000000     5.844000000
O    -6.023000000     2.714000000     5.580000000
H    -6.246000000     2.846000000     4.658000000
H    -5.498000000     3.480000000     5.811000000
O     6.150000000     2.853000000     1.498000000
H     5.508000000     3.384000000     1.027000000
H     6.997000000     3.217000000     1.240000000
O     5.122000000    -3.812000000     0.522000000
H     4.680000000    -3.532000000    -0.279000000
H     4.809000000    -3.206000000     1.193000000
O    -5.200000000     5.271000000     1.725000000
H    -6.085000000     5.083000000     2.037000000
H    -4.656000000     4.591000000     2.123000000
