144
-2812.83142
O    -4.607000000     2.422000000    -4.554000000
H    -4.172000000     1.627000000    -4.863000000
H    -5.278000000     2.107000000    -3.948000000
O    -6.702000000     1.737000000    -1.866000000
H    -7.226000000     1.056000000    -2.288000000
H    -6.653000000     1.467000000    -0.949000000
O     4.507000000     2.026000000     1.440000000
H     4.751000000     2.384000000     0.586000000
H     3.644000000     2.401000000     1.619000000
O     2.344000000     3.626000000     2.657000000
H     1.391000000     3.710000000     2.695000000
H     2.667000000     4.521000000     2.754000000
O     6.842000000     0.284000000     0.404000000
H     6.324000000     0.456000000    -0.383000000
H     6.743000000    -0.656000000     0.554000000
O     2.448000000     1.633000000     4.911000000
H     2.450000000     2.310000000     4.234000000
H     3.013000000     0.943000000     4.561000000
O     0.242000000    -2.445000000     2.553000000
H    -0.634000000    -2.130000000     2.773000000
H     0.834000000    -1.818000000     2.970000000
O    -0.987000000     0.593000000     4.974000000
H    -0.283000000     0.746000000     4.343000000
H    -1.707000000     0.243000000     4.449000000
O     2.476000000     2.387000000    -3.312000000
H     2.811000000     3.284000000    -3.312000000
H     1.799000000     2.384000000    -2.636000000
O    -1.373000000     1.562000000    -4.811000000
H    -0.479000000     1.229000000    -4.892000000
H    -1.710000000     1.561000000    -5.707000000
O    -3.733000000    -3.681000000     2.624000000
H    -3.162000000    -4.411000000     2.861000000
H    -3.664000000    -3.623000000     1.671000000
O     5.458000000    -3.292000000    -3.697000000
H     6.307000000    -3.681000000    -3.909000000
H     4.943000000    -3.389000000    -4.498000000
O     3.959000000    -0.233000000     3.269000000
H     4.291000000     0.477000000     2.719000000
H     4.243000000    -1.032000000     2.826000000
O    -4.454000000    -1.434000000    -1.508000000
H    -4.013000000    -0.891000000    -2.161000000
H    -4.219000000    -1.038000000    -0.668000000
O     0.455000000    -3.433000000     0.070000000
H     0.506000000    -2.811000000     0.796000000
H     0.867000000    -2.979000000    -0.664000000
O     4.053000000    -2.660000000     1.934000000
H     4.347000000    -2.872000000     1.048000000
H     3.205000000    -3.096000000     2.016000000
O    -5.836000000     0.214000000     4.018000000
H    -6.214000000     0.906000000     4.561000000
H    -5.371000000     0.682000000     3.324000000
O     2.062000000    -3.706000000    -2.429000000
H     2.693000000    -4.040000000    -1.792000000
H     1.304000000    -4.283000000    -2.341000000
O    -7.988000000    -0.318000000     1.850000000
H    -7.301000000    -0.973000000     1.974000000
H    -7.597000000     0.333000000     1.267000000
O    -2.384000000    -1.279000000     3.325000000
H    -2.704000000    -0.471000000     2.925000000
H    -3.031000000    -1.940000000     3.080000000
O    -2.023000000     1.785000000     7.223000000
H    -1.927000000     1.168000000     6.496000000
H    -1.724000000     2.622000000     6.867000000
O    -4.605000000    -4.019000000    -2.960000000
H    -4.205000000    -3.392000000    -2.357000000
H    -5.003000000    -3.476000000    -3.641000000
O    -3.170000000     2.989000000    -1.611000000
H    -3.357000000     2.385000000    -0.892000000
H    -2.261000000     2.806000000    -1.848000000
O     6.025000000    -0.888000000    -2.336000000
H     5.812000000    -1.743000000    -2.711000000
H     5.403000000    -0.286000000    -2.745000000
O     1.651000000    -4.864000000     2.408000000
H     1.355000000    -4.887000000     1.498000000
H     0.998000000    -4.330000000     2.860000000
O    -3.374000000    -0.163000000    -3.558000000
H    -3.872000000    -0.301000000    -4.364000000
H    -2.763000000     0.543000000    -3.772000000
O     3.963000000     0.188000000    -3.831000000
H     3.398000000     0.950000000    -3.705000000
H     3.409000000    -0.449000000    -4.281000000
O     2.465000000    -1.903000000    -4.785000000
H     1.662000000    -2.337000000    -5.074000000
H     2.635000000    -2.267000000    -3.916000000
O    -0.936000000     4.049000000    -3.754000000
H    -1.400000000     3.386000000    -4.264000000
H    -0.809000000     3.645000000    -2.896000000
O     1.881000000    -0.520000000    -7.073000000
H     2.496000000    -0.892000000    -7.705000000
H     2.158000000    -0.878000000    -6.229000000
O     0.086000000     2.830000000    -1.491000000
H     0.787000000     3.471000000    -1.377000000
H     0.206000000     2.212000000    -0.770000000
O    -6.318000000    -2.650000000     0.544000000
H    -5.765000000    -2.322000000    -0.164000000
H    -7.180000000    -2.761000000     0.143000000
O     5.748000000    -4.842000000     2.626000000
H     6.438000000    -4.774000000     1.967000000
H     5.257000000    -4.024000000     2.544000000
O     0.358000000    -3.484000000    -4.944000000
H     0.451000000    -4.229000000    -5.537000000
H    -0.502000000    -3.603000000    -4.542000000
O     5.019000000     3.053000000    -1.345000000
H     5.864000000     3.334000000    -1.697000000
H     4.386000000     3.293000000    -2.021000000
O    -6.481000000    -1.448000000    -3.636000000
H    -7.222000000    -2.054000000    -3.626000000
H    -6.062000000    -1.568000000    -2.784000000
O     2.999000000    -4.603000000    -5.526000000
H     2.517000000    -4.603000000    -4.699000000
H     3.701000000    -5.241000000    -5.394000000
O     2.027000000     4.782000000    -1.484000000
H     2.545000000     4.953000000    -0.698000000
H     2.526000000     5.186000000    -2.194000000
O    -2.458000000    -3.836000000    -0.102000000
H    -2.061000000    -3.013000000    -0.387000000
H    -1.750000000    -4.303000000     0.341000000
O     4.571000000    -4.139000000    -0.351000000
H     5.186000000    -4.872000000    -0.380000000
H     4.794000000    -3.610000000    -1.117000000
O    -0.474000000     3.494000000     2.527000000
H    -1.206000000     3.470000000     3.143000000
H    -0.709000000     4.179000000     1.901000000
O    -1.845000000    -2.351000000     5.643000000
H    -1.837000000    -3.205000000     5.211000000
H    -2.122000000    -1.740000000     4.961000000
O    -2.851000000     2.820000000     3.694000000
H    -3.705000000     3.230000000     3.559000000
H    -2.808000000     2.131000000     3.032000000
O    -6.163000000     1.521000000     0.946000000
H    -5.321000000     1.228000000     0.596000000
H    -5.976000000     2.374000000     1.337000000
O    -1.572000000     4.108000000     5.827000000
H    -0.774000000     4.491000000     5.463000000
H    -2.057000000     3.794000000     5.063000000
O    -5.745000000     4.267000000     1.939000000
H    -5.534000000     4.903000000     1.256000000
H    -6.297000000     4.751000000     2.554000000
O    -2.261000000    -4.264000000    -4.325000000
H    -3.042000000    -4.225000000    -3.773000000
H    -2.471000000    -3.709000000    -5.076000000
O    -4.980000000     5.152000000    -0.625000000
H    -4.543000000     4.351000000    -0.914000000
H    -5.816000000     5.151000000    -1.093000000
