144
-2778.96779
O    -3.816000000     1.249000000    -2.368000000
H    -3.924000000     0.637000000    -1.641000000
H    -3.207000000     1.910000000    -2.037000000
O    -4.551000000    -1.397000000    -2.761000000
H    -5.183000000    -1.789000000    -2.159000000
H    -4.569000000    -1.965000000    -3.531000000
O    -1.288000000    -0.389000000     5.885000000
H    -1.175000000    -0.573000000     6.817000000
H    -0.410000000    -0.166000000     5.576000000
O    -5.407000000     4.158000000    -2.168000000
H    -4.825000000     3.502000000    -2.552000000
H    -6.134000000     3.651000000    -1.807000000
O    -2.505000000    -1.303000000     3.504000000
H    -3.163000000    -1.994000000     3.580000000
H    -2.249000000    -1.116000000     4.407000000
O     0.743000000    -6.814000000    -4.063000000
H    -0.066000000    -6.380000000    -4.336000000
H     1.136000000    -6.211000000    -3.433000000
O     5.102000000     4.257000000     2.781000000
H     5.183000000     5.210000000     2.770000000
H     4.632000000     4.047000000     1.974000000
O     2.753000000     2.156000000    -1.911000000
H     2.734000000     1.355000000    -1.386000000
H     2.817000000     1.849000000    -2.815000000
O     3.822000000     1.973000000     3.929000000
H     4.071000000     2.860000000     3.669000000
H     4.286000000     1.825000000     4.753000000
O    -0.367000000     2.838000000    -6.502000000
H    -0.809000000     3.382000000    -5.850000000
H    -0.881000000     2.031000000    -6.528000000
O    -1.940000000     8.232000000     1.736000000
H    -1.635000000     7.334000000     1.604000000
H    -2.578000000     8.166000000     2.447000000
O    -3.691000000     3.688000000    -4.584000000
H    -3.404000000     3.920000000    -5.467000000
H    -2.918000000     3.823000000    -4.037000000
O     1.259000000     7.049000000    -0.161000000
H     1.532000000     6.447000000     0.532000000
H     0.379000000     7.324000000     0.094000000
O     3.446000000    -0.420000000    -0.949000000
H     3.340000000    -0.438000000     0.002000000
H     2.682000000    -0.889000000    -1.284000000
O     1.566000000     3.320000000     4.897000000
H     2.075000000     2.630000000     4.471000000
H     2.224000000     3.920000000     5.248000000
O     6.039000000    -2.410000000    -3.023000000
H     5.407000000    -2.359000000    -2.305000000
H     6.288000000    -3.334000000    -3.057000000
O     2.842000000    -5.463000000     1.974000000
H     2.300000000    -4.812000000     2.420000000
H     2.393000000    -5.620000000     1.144000000
O    -4.230000000     7.043000000    -2.228000000
H    -3.703000000     7.294000000    -2.987000000
H    -4.610000000     6.199000000    -2.469000000
O    -1.739000000    -5.680000000     2.252000000
H    -2.025000000    -6.004000000     3.106000000
H    -2.335000000    -4.956000000     2.059000000
O     1.536000000     4.710000000    -1.847000000
H     0.722000000     4.418000000    -1.436000000
H     1.993000000     3.900000000    -2.076000000
O     0.065000000     7.277000000    -2.927000000
H     0.536000000     6.683000000    -2.342000000
H    -0.622000000     7.657000000    -2.381000000
O    -2.137000000    -0.937000000    -4.453000000
H    -2.614000000    -0.301000000    -3.920000000
H    -2.705000000    -1.707000000    -4.473000000
O    -4.882000000     1.212000000    -5.162000000
H    -4.592000000     2.115000000    -5.030000000
H    -4.582000000     0.748000000    -4.380000000
O     2.056000000     6.569000000     3.749000000
H     1.768000000     5.900000000     3.128000000
H     2.838000000     6.947000000     3.348000000
O    -3.127000000    -3.556000000    -0.608000000
H    -3.824000000    -3.909000000    -0.054000000
H    -3.232000000    -2.606000000    -0.549000000
O     1.155000000    -4.497000000     4.105000000
H     0.329000000    -4.094000000     4.370000000
H     1.752000000    -4.321000000     4.832000000
O     4.878000000     0.271000000     1.897000000
H     4.499000000    -0.523000000     2.275000000
H     4.576000000     0.976000000     2.469000000
O    -5.236000000     3.875000000     2.738000000
H    -4.622000000     4.127000000     2.047000000
H    -4.994000000     2.975000000     2.956000000
O     2.114000000    -7.167000000     4.548000000
H     3.052000000    -7.028000000     4.415000000
H     1.695000000    -6.471000000     4.042000000
O     1.426000000     0.589000000     5.837000000
H     1.585000000     1.515000000     5.651000000
H     2.125000000     0.345000000     6.444000000
O    -0.527000000    -2.640000000    -6.090000000
H    -0.846000000    -1.832000000    -5.688000000
H    -0.706000000    -3.318000000    -5.439000000
O     4.042000000     5.629000000    -2.413000000
H     3.933000000     5.944000000    -3.310000000
H     3.150000000     5.487000000    -2.098000000
O    -2.111000000     5.769000000     0.887000000
H    -2.964000000     5.436000000     0.607000000
H    -1.484000000     5.122000000     0.564000000
O     3.280000000     3.624000000     0.872000000
H     3.054000000     3.233000000     0.028000000
H     2.510000000     4.141000000     1.111000000
O     5.260000000    -6.506000000     1.315000000
H     4.410000000    -6.159000000     1.583000000
H     5.092000000    -7.428000000     1.122000000
O     0.182000000    -7.036000000     0.968000000
H     0.668000000    -6.394000000     0.450000000
H    -0.607000000    -6.572000000     1.246000000
O     5.079000000    -2.387000000    -0.198000000
H     4.437000000    -1.882000000    -0.697000000
H     4.811000000    -2.280000000     0.715000000
O    -0.876000000    -4.355000000    -1.818000000
H    -1.528000000    -4.842000000    -2.323000000
H    -1.360000000    -4.017000000    -1.064000000
O    -2.994000000    -0.596000000     0.774000000
H    -2.966000000    -1.129000000     1.569000000
H    -2.078000000    -0.512000000     0.509000000
O     0.893000000     4.698000000     2.233000000
H     0.556000000     4.355000000     3.060000000
H     0.170000000     4.588000000     1.615000000
O    -3.986000000     3.637000000     0.038000000
H    -3.248000000     3.271000000    -0.450000000
H    -4.542000000     4.035000000    -0.632000000
O     4.335000000    -2.441000000     2.646000000
H     4.877000000    -2.244000000     3.410000000
H     4.216000000    -3.390000000     2.675000000
O    -1.896000000     8.090000000    -1.116000000
H    -2.148000000     8.224000000    -0.203000000
H    -2.594000000     7.545000000    -1.481000000
O     1.341000000    -3.188000000    -2.697000000
H     0.498000000    -3.583000000    -2.475000000
H     1.121000000    -2.479000000    -3.301000000
O    -0.981000000     3.641000000     5.947000000
H    -0.096000000     3.315000000     5.785000000
H    -0.944000000     4.567000000     5.705000000
O    -5.568000000     0.061000000     0.268000000
H    -4.712000000    -0.356000000     0.366000000
H    -6.189000000    -0.667000000     0.249000000
O     2.134000000    -5.663000000    -0.874000000
H     1.627000000    -4.916000000    -1.193000000
H     2.828000000    -5.776000000    -1.523000000
O    -1.025000000     4.094000000    -3.815000000
H    -0.562000000     4.872000000    -3.506000000
H    -1.276000000     3.631000000    -3.015000000
