144
-2791.02937
O     5.155000000     0.375000000     4.188000000
H     4.870000000     0.482000000     3.280000000
H     4.715000000    -0.422000000     4.484000000
O     6.442000000    -1.218000000    -0.353000000
H     5.730000000    -0.720000000    -0.754000000
H     6.155000000    -1.361000000     0.549000000
O    -3.419000000    -2.015000000    -1.905000000
H    -4.365000000    -2.146000000    -1.968000000
H    -3.314000000    -1.070000000    -1.800000000
O    -2.698000000     3.668000000    -2.262000000
H    -3.624000000     3.909000000    -2.231000000
H    -2.690000000     2.724000000    -2.104000000
O    -8.249000000     1.663000000    -3.313000000
H    -7.797000000     1.382000000    -2.517000000
H    -8.756000000     0.897000000    -3.582000000
O     2.737000000    -1.969000000    -3.598000000
H     2.333000000    -1.856000000    -4.459000000
H     2.055000000    -2.379000000    -3.066000000
O    -1.452000000     4.332000000    -0.094000000
H    -1.958000000     4.272000000    -0.905000000
H    -0.723000000     3.726000000    -0.221000000
O    -2.746000000     3.208000000     2.458000000
H    -2.535000000     3.302000000     1.529000000
H    -2.049000000     2.653000000     2.807000000
O    -5.656000000     3.582000000    -4.402000000
H    -5.798000000     4.439000000    -4.803000000
H    -5.687000000     3.750000000    -3.460000000
O     1.283000000    -2.457000000     3.375000000
H     0.518000000    -1.996000000     3.721000000
H     1.425000000    -3.178000000     3.988000000
O     0.974000000    -3.204000000     0.879000000
H     1.129000000    -2.636000000     1.634000000
H     0.089000000    -2.982000000     0.591000000
O     0.185000000     0.288000000     6.736000000
H    -0.225000000     0.020000000     5.914000000
H    -0.148000000    -0.333000000     7.384000000
O     8.065000000     1.198000000     1.356000000
H     8.759000000     1.237000000     0.698000000
H     7.254000000     1.208000000     0.848000000
O    -5.470000000     3.458000000    -1.488000000
H    -5.420000000     2.513000000    -1.631000000
H    -5.648000000     3.549000000    -0.552000000
O    -5.375000000    -0.237000000     2.065000000
H    -5.771000000    -0.758000000     1.367000000
H    -4.680000000     0.258000000     1.629000000
O     4.406000000    -2.275000000     5.176000000
H     3.753000000    -2.392000000     4.487000000
H     4.547000000    -3.156000000     5.524000000
O    -0.840000000     1.777000000     3.880000000
H    -0.138000000     2.251000000     4.327000000
H    -0.650000000     0.854000000     4.048000000
O    -3.996000000     5.029000000     4.061000000
H    -3.459000000     4.290000000     3.777000000
H    -4.676000000     4.635000000     4.607000000
O    -5.087000000     3.022000000     1.214000000
H    -4.592000000     3.324000000     1.975000000
H    -4.532000000     2.351000000     0.818000000
O    -3.417000000     1.568000000     5.266000000
H    -2.588000000     1.566000000     4.787000000
H    -3.399000000     0.758000000     5.777000000
O    -1.616000000    -3.409000000     0.058000000
H    -2.263000000    -3.366000000     0.763000000
H    -1.993000000    -2.878000000    -0.645000000
O    -6.334000000     0.113000000     4.720000000
H    -5.921000000    -0.058000000     3.873000000
H    -5.636000000    -0.027000000     5.360000000
O     0.771000000     2.815000000    -0.428000000
H     1.029000000     2.811000000    -1.350000000
H     0.513000000     1.911000000    -0.248000000
O     0.726000000    -3.432000000    -2.284000000
H     0.234000000    -3.607000000    -3.087000000
H     0.123000000    -3.666000000    -1.578000000
O     1.506000000    -5.599000000     2.475000000
H     0.989000000    -6.046000000     1.805000000
H     1.550000000    -4.691000000     2.177000000
O     2.849000000     4.049000000     0.797000000
H     2.071000000     3.561000000     0.527000000
H     2.570000000     4.532000000     1.575000000
O    -3.297000000    -4.637000000    -3.503000000
H    -4.163000000    -5.044000000    -3.535000000
H    -3.425000000    -3.841000000    -2.986000000
O    -1.003000000     5.412000000    -3.749000000
H    -0.964000000     5.075000000    -4.644000000
H    -1.406000000     4.706000000    -3.244000000
O     4.684000000    -0.009000000    -2.354000000
H     4.253000000     0.572000000    -2.981000000
H     4.208000000    -0.836000000    -2.429000000
O     1.307000000     2.481000000    -3.152000000
H     2.210000000     2.173000000    -3.079000000
H     1.040000000     2.237000000    -4.038000000
O    -5.929000000     0.752000000    -1.906000000
H    -5.863000000     0.204000000    -2.688000000
H    -5.030000000     0.815000000    -1.582000000
O     2.229000000    -5.091000000    -3.961000000
H     1.421000000    -4.841000000    -4.410000000
H     2.154000000    -4.695000000    -3.093000000
O    -3.439000000    -2.817000000     2.416000000
H    -3.631000000    -3.287000000     3.228000000
H    -4.022000000    -2.058000000     2.435000000
O    -5.198000000     1.166000000    -5.676000000
H    -5.460000000     1.907000000    -5.130000000
H    -5.339000000     1.468000000    -6.574000000
O     4.398000000     2.024000000    -4.074000000
H     4.209000000     2.630000000    -4.790000000
H     4.971000000     2.517000000    -3.487000000
O    -0.769000000    -4.020000000    -4.728000000
H    -1.651000000    -4.379000000    -4.626000000
H    -0.877000000    -3.288000000    -5.336000000
O     5.618000000    -1.729000000     2.117000000
H     6.296000000    -1.358000000     2.683000000
H     5.609000000    -2.661000000     2.335000000
O    -6.349000000    -2.086000000    -3.202000000
H    -6.129000000    -3.007000000    -3.344000000
H    -6.631000000    -1.772000000    -4.061000000
O    -7.945000000     2.120000000     0.813000000
H    -7.594000000     1.323000000     0.414000000
H    -7.172000000     2.597000000     1.115000000
O     0.926000000    -0.860000000    -5.543000000
H     0.060000000    -0.995000000    -5.929000000
H     1.415000000    -0.383000000    -6.213000000
O     6.978000000     1.543000000    -1.705000000
H     6.400000000     1.136000000    -2.351000000
H     6.386000000     1.873000000    -1.028000000
O    -3.640000000    -0.964000000    -5.777000000
H    -3.259000000    -1.067000000    -4.905000000
H    -4.375000000    -0.365000000    -5.647000000
O    -0.909000000    -0.968000000     4.266000000
H    -1.589000000    -1.111000000     3.608000000
H    -1.031000000    -1.679000000     4.895000000
O     5.490000000     2.725000000     0.627000000
H     4.564000000     2.603000000     0.836000000
H     5.591000000     3.672000000     0.535000000
O     4.746000000    -1.170000000    -5.940000000
H     4.099000000    -1.450000000    -6.587000000
H     4.337000000    -1.358000000    -5.095000000
O     5.105000000    -5.525000000    -2.568000000
H     4.465000000    -5.483000000    -3.279000000
H     4.714000000    -5.008000000    -1.864000000
O     4.457000000    -4.295000000    -0.325000000
H     5.120000000    -4.516000000     0.329000000
H     4.304000000    -3.358000000    -0.204000000
O    -6.496000000    -1.272000000    -0.301000000
H    -7.415000000    -1.097000000    -0.097000000
H    -6.453000000    -1.243000000    -1.256000000
