144
-2820.75840
O    -1.320000000    -3.029000000    -4.437000000
H    -0.383000000    -2.840000000    -4.392000000
H    -1.596000000    -3.091000000    -3.523000000
O    -2.477000000    -6.392000000     0.661000000
H    -2.013000000    -5.670000000     1.085000000
H    -3.008000000    -5.971000000    -0.014000000
O    -1.276000000    -4.214000000     1.831000000
H    -2.004000000    -3.594000000     1.861000000
H    -0.914000000    -4.202000000     2.716000000
O    -5.853000000    -4.056000000    -4.435000000
H    -5.527000000    -3.198000000    -4.163000000
H    -5.870000000    -4.014000000    -5.391000000
O    -4.638000000     0.463000000     4.329000000
H    -5.103000000     1.051000000     3.734000000
H    -4.665000000     0.908000000     5.176000000
O     0.313000000    -4.359000000    -0.718000000
H    -0.212000000    -4.350000000     0.082000000
H    -0.049000000    -3.649000000    -1.249000000
O    -3.850000000    -4.663000000    -1.035000000
H    -4.568000000    -4.030000000    -1.023000000
H    -3.083000000    -4.150000000    -1.289000000
O    -0.115000000     0.026000000     3.796000000
H     0.739000000    -0.256000000     3.466000000
H    -0.734000000    -0.603000000     3.426000000
O    -2.621000000    -1.438000000     3.851000000
H    -3.276000000    -0.748000000     3.956000000
H    -2.828000000    -1.837000000     3.006000000
O     3.545000000     4.643000000     2.882000000
H     3.530000000     4.598000000     1.926000000
H     4.372000000     5.079000000     3.088000000
O     3.382000000     3.100000000     5.331000000
H     4.180000000     3.176000000     5.854000000
H     3.517000000     3.703000000     4.600000000
O    -2.751000000     0.386000000    -4.271000000
H    -3.378000000    -0.173000000    -4.729000000
H    -2.174000000     0.715000000    -4.961000000
O     3.674000000    -1.479000000    -2.741000000
H     4.173000000    -1.436000000    -1.925000000
H     4.228000000    -1.986000000    -3.334000000
O    -4.254000000    -2.110000000    -3.477000000
H    -3.482000000    -2.204000000    -4.036000000
H    -3.899000000    -1.941000000    -2.605000000
O    -0.084000000     5.985000000     4.922000000
H    -0.338000000     6.720000000     4.364000000
H     0.262000000     5.332000000     4.315000000
O    -1.835000000     4.916000000    -0.968000000
H    -2.662000000     4.863000000    -1.448000000
H    -1.318000000     4.182000000    -1.300000000
O    -1.116000000     2.373000000     5.291000000
H    -1.034000000     1.774000000     4.549000000
H    -1.646000000     3.096000000     4.958000000
O     6.046000000     3.496000000    -0.239000000
H     5.352000000     4.143000000    -0.368000000
H     6.856000000     4.005000000    -0.264000000
O     5.223000000     1.418000000    -1.945000000
H     5.454000000     2.230000000    -1.496000000
H     4.799000000     0.885000000    -1.272000000
O     1.217000000    -2.356000000    -3.970000000
H     1.347000000    -1.690000000    -4.645000000
H     1.998000000    -2.296000000    -3.420000000
O    -5.649000000     2.447000000     0.486000000
H    -5.116000000     2.315000000    -0.299000000
H    -6.546000000     2.282000000     0.197000000
O     0.874000000     4.267000000     3.010000000
H     1.716000000     4.718000000     2.946000000
H     1.103000000     3.342000000     3.095000000
O    -5.916000000    -2.933000000     2.369000000
H    -6.468000000    -2.212000000     2.068000000
H    -6.371000000    -3.278000000     3.138000000
O     2.977000000     0.479000000     4.411000000
H     2.988000000     1.365000000     4.773000000
H     3.890000000     0.301000000     4.184000000
O     1.889000000    -2.080000000     4.940000000
H     2.061000000    -1.144000000     4.839000000
H     2.144000000    -2.275000000     5.842000000
O     3.492000000     1.304000000    -4.197000000
H     4.202000000     1.639000000    -3.651000000
H     3.479000000     0.363000000    -4.023000000
O     1.073000000     2.701000000    -3.814000000
H     1.885000000     2.232000000    -4.006000000
H     1.203000000     3.570000000    -4.194000000
O    -3.720000000    -6.321000000    -3.354000000
H    -4.051000000    -5.854000000    -2.587000000
H    -3.786000000    -5.687000000    -4.067000000
O    -6.212000000    -2.910000000    -1.409000000
H    -5.789000000    -3.257000000    -2.194000000
H    -5.607000000    -2.240000000    -1.088000000
O     5.426000000    -1.283000000    -0.645000000
H     5.817000000    -0.475000000    -0.312000000
H     6.165000000    -1.882000000    -0.747000000
O     1.338000000     5.659000000    -1.251000000
H     0.536000000     6.047000000    -0.902000000
H     1.034000000     4.956000000    -1.825000000
O    -6.433000000     1.692000000    -3.303000000
H    -6.101000000     0.952000000    -2.795000000
H    -7.316000000     1.429000000    -3.562000000
O     5.598000000    -0.021000000     4.273000000
H     6.340000000    -0.605000000     4.116000000
H     5.583000000     0.557000000     3.511000000
O     3.731000000     5.670000000     0.046000000
H     2.805000000     5.878000000    -0.075000000
H     4.180000000     6.509000000    -0.057000000
O    -3.385000000    -2.618000000     1.465000000
H    -3.367000000    -2.295000000     0.565000000
H    -4.315000000    -2.724000000     1.664000000
O    -0.513000000     0.014000000     6.611000000
H    -0.657000000     0.954000000     6.724000000
H    -0.299000000    -0.085000000     5.683000000
O    -7.982000000    -0.925000000    -1.894000000
H    -8.445000000    -1.082000000    -2.717000000
H    -7.423000000    -1.694000000    -1.783000000
O     6.323000000    -0.846000000    -4.094000000
H     5.530000000    -0.324000000    -3.971000000
H     6.433000000    -0.896000000    -5.043000000
O    -3.322000000     3.921000000     4.193000000
H    -3.608000000     4.751000000     4.575000000
H    -2.799000000     4.175000000     3.432000000
O    -0.315000000    -5.279000000    -6.084000000
H    -1.107000000    -5.815000000    -6.051000000
H    -0.559000000    -4.465000000    -5.643000000
O    -4.365000000     0.514000000    -1.597000000
H    -4.088000000    -0.320000000    -1.218000000
H    -3.689000000     0.721000000    -2.243000000
O     6.248000000     1.130000000     1.446000000
H     7.178000000     0.902000000     1.430000000
H     6.169000000     1.856000000     0.827000000
O     2.348000000    -3.153000000     0.475000000
H     2.188000000    -2.317000000     0.911000000
H     1.579000000    -3.286000000    -0.078000000
O    -5.530000000     2.939000000     3.052000000
H    -5.365000000     2.904000000     2.110000000
H    -4.822000000     3.481000000     3.399000000
O    -0.267000000     2.879000000    -1.527000000
H    -0.208000000     2.116000000    -0.951000000
H     0.197000000     2.615000000    -2.321000000
O    -1.612000000     4.793000000     1.773000000
H    -0.692000000     4.827000000     2.033000000
H    -1.589000000     4.699000000     0.821000000
O     2.631000000    -5.807000000    -2.356000000
H     1.975000000    -6.129000000    -2.974000000
H     2.384000000    -4.896000000    -2.197000000
O     4.723000000    -4.471000000     0.353000000
H     3.878000000    -4.020000000     0.348000000
H     5.102000000    -4.277000000    -0.504000000
