144
-2813.38534
O     2.382000000    -4.245000000    -4.732000000
H     1.629000000    -4.223000000    -4.142000000
H     2.812000000    -3.399000000    -4.603000000
O    -7.411000000    -1.467000000    -3.290000000
H    -6.557000000    -1.843000000    -3.501000000
H    -7.264000000    -0.976000000    -2.482000000
O    -2.457000000    -0.059000000    -4.386000000
H    -2.890000000    -0.411000000    -5.164000000
H    -2.973000000    -0.394000000    -3.653000000
O    -2.408000000     2.036000000     5.120000000
H    -1.773000000     1.784000000     5.790000000
H    -1.913000000     2.590000000     4.517000000
O    -0.884000000     3.783000000     2.626000000
H    -0.181000000     3.142000000     2.524000000
H    -1.288000000     3.836000000     1.760000000
O    -4.185000000    -2.267000000     1.616000000
H    -4.050000000    -1.658000000     0.890000000
H    -3.405000000    -2.164000000     2.162000000
O     4.897000000    -4.182000000     1.104000000
H     4.290000000    -4.281000000     0.371000000
H     5.722000000    -3.916000000     0.698000000
O    -4.727000000     0.905000000     4.438000000
H    -3.893000000     1.341000000     4.612000000
H    -5.134000000     1.433000000     3.751000000
O     5.915000000    -0.912000000    -4.571000000
H     6.008000000    -1.859000000    -4.675000000
H     5.194000000    -0.809000000    -3.950000000
O    -2.785000000     2.274000000    -5.886000000
H    -1.986000000     2.800000000    -5.867000000
H    -2.653000000     1.613000000    -5.206000000
O     6.526000000     0.054000000    -0.893000000
H     7.004000000     0.589000000    -1.526000000
H     6.595000000     0.538000000    -0.070000000
O    -4.902000000    -2.927000000    -2.483000000
H    -5.482000000    -3.253000000    -1.795000000
H    -4.471000000    -2.167000000    -2.092000000
O    -6.815000000    -1.408000000     2.470000000
H    -6.313000000    -1.007000000     1.760000000
H    -6.219000000    -2.052000000     2.851000000
O    -0.759000000    -5.342000000    -4.952000000
H    -1.300000000    -4.597000000    -4.687000000
H    -1.197000000    -6.103000000    -4.570000000
O     0.382000000    -0.515000000    -4.958000000
H    -0.477000000    -0.190000000    -4.689000000
H     0.188000000    -1.229000000    -5.566000000
O     5.011000000     0.022000000     3.311000000
H     5.878000000     0.184000000     3.683000000
H     4.430000000     0.613000000     3.791000000
O     3.242000000     3.674000000    -3.974000000
H     3.026000000     3.299000000    -3.120000000
H     2.718000000     3.170000000    -4.596000000
O     4.571000000     4.490000000    -0.784000000
H     5.329000000     4.091000000    -1.210000000
H     3.895000000     3.813000000    -0.815000000
O     2.904000000    -1.596000000    -4.367000000
H     2.043000000    -1.179000000    -4.360000000
H     3.290000000    -1.361000000    -3.523000000
O     1.043000000    -3.379000000    -0.005000000
H     0.977000000    -3.482000000     0.944000000
H     0.688000000    -2.507000000    -0.176000000
O    -0.061000000    -0.989000000     5.136000000
H     0.643000000    -1.625000000     5.267000000
H     0.151000000    -0.271000000     5.732000000
O     4.115000000     1.633000000     5.253000000
H     4.977000000     1.743000000     5.654000000
H     3.506000000     2.011000000     5.888000000
O    -2.974000000    -1.116000000     5.844000000
H    -2.023000000    -1.032000000     5.776000000
H    -3.312000000    -0.624000000     5.096000000
O     3.876000000    -4.140000000    -1.768000000
H     4.772000000    -4.455000000    -1.893000000
H     3.332000000    -4.922000000    -1.866000000
O     1.857000000     1.792000000    -5.536000000
H     2.345000000     1.645000000    -6.346000000
H     1.419000000     0.957000000    -5.366000000
O    -5.259000000     3.809000000     3.345000000
H    -4.755000000     4.606000000     3.184000000
H    -5.334000000     3.395000000     2.485000000
O     5.525000000     3.604000000     1.938000000
H     5.069000000     4.108000000     2.612000000
H     5.311000000     4.051000000     1.119000000
O     1.216000000    -3.024000000     2.684000000
H     0.995000000    -3.684000000     3.342000000
H     2.173000000    -3.017000000     2.663000000
O    -0.144000000    -2.917000000    -6.148000000
H     0.499000000    -2.894000000    -6.857000000
H    -0.200000000    -3.841000000    -5.906000000
O    -0.331000000     3.073000000    -2.710000000
H    -1.145000000     2.638000000    -2.457000000
H    -0.424000000     3.228000000    -3.650000000
O     4.303000000    -1.092000000    -2.031000000
H     5.016000000    -0.612000000    -1.610000000
H     4.050000000    -1.757000000    -1.391000000
O     0.076000000     1.987000000     6.372000000
H     0.570000000     2.500000000     5.733000000
H     0.741000000     1.480000000     6.838000000
O    -5.045000000     2.298000000     1.025000000
H    -4.609000000     1.459000000     0.873000000
H    -5.528000000     2.466000000     0.216000000
O     4.879000000    -2.920000000     5.516000000
H     5.711000000    -2.835000000     5.051000000
H     4.218000000    -2.937000000     4.824000000
O     2.127000000     3.691000000     4.723000000
H     2.397000000     4.486000000     5.183000000
H     2.948000000     3.283000000     4.449000000
O    -5.156000000     0.583000000    -3.606000000
H    -4.664000000     0.096000000    -2.945000000
H    -4.954000000     0.139000000    -4.429000000
O     2.167000000     2.877000000    -1.551000000
H     2.208000000     1.964000000    -1.268000000
H     1.231000000     3.068000000    -1.610000000
O     7.141000000    -3.095000000    -0.318000000
H     7.860000000    -2.794000000     0.237000000
H     6.874000000    -2.316000000    -0.807000000
O    -2.933000000     2.550000000    -1.939000000
H    -3.244000000     1.645000000    -1.904000000
H    -3.672000000     3.043000000    -2.297000000
O    -2.721000000    -3.776000000    -4.224000000
H    -3.469000000    -3.663000000    -3.637000000
H    -3.011000000    -3.402000000    -5.055000000
O    -1.458000000    -2.529000000     2.926000000
H    -0.566000000    -2.664000000     2.604000000
H    -1.374000000    -1.835000000     3.580000000
O    -2.511000000     4.121000000     0.353000000
H    -1.973000000     4.532000000    -0.324000000
H    -2.915000000     3.371000000    -0.085000000
O    -6.251000000     3.185000000    -1.364000000
H    -5.543000000     3.674000000    -1.782000000
H    -6.760000000     2.829000000    -2.092000000
O     3.861000000    -2.490000000     2.929000000
H     4.261000000    -1.627000000     2.819000000
H     4.368000000    -3.064000000     2.356000000
O    -1.257000000    -4.850000000    -1.044000000
H    -0.433000000    -4.453000000    -0.762000000
H    -1.570000000    -4.279000000    -1.746000000
O    -7.013000000    -0.315000000    -0.887000000
H    -7.503000000     0.263000000    -0.302000000
H    -6.095000000    -0.092000000    -0.731000000
O     6.908000000     1.426000000     1.392000000
H     6.394000000     0.781000000     1.876000000
H     6.400000000     2.235000000     1.457000000
O    -7.601000000     2.020000000    -3.660000000
H    -7.688000000     2.279000000    -4.577000000
H    -6.798000000     1.500000000    -3.632000000
