144
-2815.46950
O    -1.294000000    -2.709000000    -3.748000000
H    -0.623000000    -3.031000000    -4.350000000
H    -1.098000000    -3.143000000    -2.918000000
O    -1.907000000     6.179000000    -2.852000000
H    -1.997000000     6.251000000    -1.902000000
H    -1.422000000     5.365000000    -2.986000000
O     0.952000000     1.314000000     4.656000000
H     0.032000000     1.122000000     4.473000000
H     1.317000000     0.480000000     4.950000000
O    -1.124000000     3.535000000    -3.227000000
H    -1.969000000     3.386000000    -3.650000000
H    -1.070000000     2.857000000    -2.553000000
O    -4.344000000     1.057000000     3.172000000
H    -4.791000000     0.316000000     2.764000000
H    -4.985000000     1.414000000     3.788000000
O     0.388000000    -5.012000000    -3.164000000
H     1.081000000    -5.454000000    -2.674000000
H    -0.158000000    -4.603000000    -2.492000000
O    -2.600000000    -5.428000000    -1.095000000
H    -2.152000000    -4.585000000    -1.025000000
H    -3.408000000    -5.231000000    -1.568000000
O    -0.652000000    -2.293000000     2.981000000
H    -1.144000000    -2.197000000     2.166000000
H     0.248000000    -2.455000000     2.701000000
O    -2.753000000    -2.783000000     4.988000000
H    -2.095000000    -2.995000000     4.326000000
H    -3.587000000    -3.013000000     4.579000000
O     5.096000000    -0.050000000    -5.081000000
H     4.384000000     0.206000000    -4.495000000
H     5.889000000     0.261000000    -4.645000000
O     4.704000000     2.800000000    -2.686000000
H     3.810000000     3.107000000    -2.839000000
H     4.608000000     1.865000000    -2.503000000
O     3.993000000     0.060000000     2.312000000
H     4.423000000    -0.608000000     1.778000000
H     4.587000000     0.810000000     2.280000000
O     3.470000000     3.133000000     5.227000000
H     3.973000000     3.587000000     4.550000000
H     4.132000000     2.765000000     5.812000000
O     2.619000000    -3.209000000    -3.819000000
H     2.517000000    -3.897000000    -3.162000000
H     1.837000000    -3.284000000    -4.367000000
O    -3.285000000    -3.684000000    -5.862000000
H    -3.841000000    -2.907000000    -5.808000000
H    -2.565000000    -3.507000000    -5.257000000
O    -1.182000000     4.875000000     1.941000000
H    -1.997000000     4.509000000     2.284000000
H    -0.529000000     4.675000000     2.612000000
O    -3.313000000     5.510000000    -0.048000000
H    -2.641000000     5.084000000     0.484000000
H    -3.727000000     6.137000000     0.546000000
O    -1.595000000     0.472000000     4.014000000
H    -2.536000000     0.559000000     3.863000000
H    -1.350000000    -0.328000000     3.550000000
O    -3.349000000     3.872000000     3.061000000
H    -3.545000000     3.005000000     2.705000000
H    -4.199000000     4.213000000     3.340000000
O     1.301000000     3.292000000    -4.218000000
H     0.485000000     3.643000000    -3.862000000
H     1.986000000     3.831000000    -3.822000000
O     5.031000000     0.320000000    -1.378000000
H     5.619000000     0.987000000    -1.022000000
H     4.962000000    -0.333000000    -0.682000000
O    -5.357000000    -5.065000000     0.782000000
H    -5.854000000    -5.670000000     1.332000000
H    -5.111000000    -5.584000000     0.017000000
O    -2.245000000     1.280000000    -1.669000000
H    -2.975000000     1.424000000    -1.067000000
H    -1.603000000     0.792000000    -1.154000000
O    -7.336000000    -3.778000000    -0.218000000
H    -7.936000000    -4.054000000     0.475000000
H    -6.482000000    -4.107000000     0.060000000
O     2.967000000    -4.013000000     0.766000000
H     3.334000000    -4.820000000     1.127000000
H     3.406000000    -3.907000000    -0.078000000
O     4.880000000    -1.987000000    -2.771000000
H     4.635000000    -1.112000000    -2.469000000
H     4.087000000    -2.329000000    -3.183000000
O     2.345000000     0.884000000    -4.101000000
H     1.625000000     0.289000000    -4.309000000
H     1.987000000     1.758000000    -4.256000000
O    -4.348000000    -2.020000000    -1.192000000
H    -4.716000000    -2.788000000    -1.630000000
H    -3.611000000    -2.363000000    -0.687000000
O     2.993000000    -5.700000000    -1.863000000
H     3.838000000    -5.280000000    -2.022000000
H     2.993000000    -5.892000000    -0.925000000
O    -0.374000000     6.992000000     0.337000000
H    -0.733000000     6.168000000     0.667000000
H    -1.035000000     7.647000000     0.559000000
O     3.739000000     0.483000000     5.293000000
H     3.346000000     1.325000000     5.066000000
H     3.703000000    -0.025000000     4.482000000
O     2.053000000     6.866000000    -0.865000000
H     1.962000000     7.818000000    -0.905000000
H     1.206000000     6.558000000    -0.543000000
O     1.521000000     6.995000000     2.384000000
H     1.245000000     6.199000000     2.837000000
H     0.740000000     7.286000000     1.913000000
O     5.355000000    -1.578000000     0.600000000
H     5.418000000    -2.059000000     1.426000000
H     6.013000000    -1.983000000     0.036000000
O     3.882000000     4.576000000     2.599000000
H     3.928000000     4.186000000     1.726000000
H     3.441000000     5.415000000     2.463000000
O    -3.381000000    -4.058000000     2.538000000
H    -2.977000000    -3.567000000     1.823000000
H    -4.074000000    -4.567000000     2.118000000
O    -1.826000000     4.611000000     5.492000000
H    -2.056000000     4.138000000     4.692000000
H    -2.637000000     4.631000000     6.000000000
O     0.837000000     4.449000000     3.676000000
H     0.495000000     3.910000000     4.389000000
H     1.717000000     4.107000000     3.518000000
O     2.028000000    -2.123000000     2.429000000
H     2.550000000    -1.327000000     2.328000000
H     2.371000000    -2.720000000     1.764000000
O     5.926000000     2.088000000     2.074000000
H     6.326000000     2.541000000     2.817000000
H     5.814000000     2.768000000     1.410000000
O    -4.505000000     2.245000000    -0.357000000
H    -5.259000000     1.709000000    -0.602000000
H    -4.587000000     3.033000000    -0.895000000
O    -6.283000000     0.092000000    -1.517000000
H    -5.983000000     0.546000000    -2.304000000
H    -5.612000000    -0.571000000    -1.353000000
O     4.651000000     3.861000000     0.099000000
H     5.127000000     3.357000000    -0.561000000
H     4.711000000     4.768000000    -0.203000000
O    -0.042000000    -6.121000000     0.574000000
H    -0.690000000    -6.456000000    -0.045000000
H     0.104000000    -5.215000000     0.302000000
O    -5.723000000    -1.424000000     2.476000000
H    -6.212000000    -1.605000000     1.673000000
H    -5.315000000    -2.260000000     2.702000000
O    -2.693000000    -8.026000000     1.097000000
H    -2.312000000    -7.155000000     0.992000000
H    -3.596000000    -7.931000000     0.795000000
O    -1.918000000    -0.042000000    -4.113000000
H    -1.552000000    -0.904000000    -3.915000000
H    -1.781000000     0.466000000    -3.314000000
O     2.752000000     5.308000000    -3.214000000
H     2.519000000     5.686000000    -2.366000000
H     3.121000000     6.039000000    -3.709000000
