144
-2845.39431
O    -6.316000000     0.154000000    -0.035000000
H    -5.686000000     0.830000000    -0.285000000
H    -5.918000000    -0.665000000    -0.331000000
O    -2.120000000    -1.060000000    -2.985000000
H    -1.442000000    -1.142000000    -3.656000000
H    -2.047000000    -0.155000000    -2.680000000
O    -0.364000000     1.435000000     3.677000000
H    -1.130000000     1.321000000     3.114000000
H     0.148000000     0.636000000     3.549000000
O    -2.528000000    -5.050000000    -3.132000000
H    -2.710000000    -4.183000000    -2.771000000
H    -1.908000000    -4.889000000    -3.843000000
O     4.927000000     3.911000000    -1.800000000
H     5.010000000     4.062000000    -0.858000000
H     4.019000000     4.138000000    -2.000000000
O    -2.809000000    -2.938000000    -1.257000000
H    -1.993000000    -3.380000000    -1.024000000
H    -2.530000000    -2.137000000    -1.701000000
O    -2.460000000     6.386000000     2.083000000
H    -3.324000000     6.763000000     1.918000000
H    -2.638000000     5.585000000     2.577000000
O    -5.215000000     4.948000000     2.342000000
H    -5.665000000     5.544000000     2.940000000
H    -5.684000000     4.118000000     2.434000000
O     5.765000000    -2.749000000    -5.256000000
H     5.000000000    -3.324000000    -5.273000000
H     5.465000000    -1.964000000    -4.797000000
O    -4.422000000    -2.983000000     1.148000000
H    -4.111000000    -2.750000000     0.273000000
H    -4.073000000    -2.297000000     1.717000000
O     3.416000000     4.060000000    -5.362000000
H     2.912000000     3.721000000    -6.102000000
H     2.857000000     3.905000000    -4.601000000
O     1.134000000     5.572000000    -2.020000000
H     1.784000000     6.273000000    -1.976000000
H     0.465000000     5.826000000    -1.383000000
O    -3.788000000     1.663000000     4.785000000
H    -3.495000000     0.830000000     5.155000000
H    -3.255000000     1.776000000     3.998000000
O     3.424000000    -3.502000000     2.595000000
H     3.542000000    -4.425000000     2.372000000
H     2.931000000    -3.515000000     3.415000000
O     1.871000000    -2.261000000    -5.834000000
H     2.455000000    -1.539000000    -6.067000000
H     1.790000000    -2.773000000    -6.639000000
O    -6.273000000     2.395000000     5.485000000
H    -6.073000000     3.166000000     6.015000000
H    -5.419000000     2.076000000     5.194000000
O     1.393000000     5.464000000     2.617000000
H     0.999000000     6.161000000     3.142000000
H     0.726000000     4.778000000     2.590000000
O    -0.359000000     3.862000000     4.603000000
H    -0.126000000     3.008000000     4.237000000
H    -1.265000000     4.001000000     4.327000000
O     2.888000000    -0.930000000     1.897000000
H     3.069000000    -1.869000000     1.939000000
H     2.335000000    -0.827000000     1.123000000
O    -0.923000000    -3.054000000     3.194000000
H    -0.113000000    -2.545000000     3.148000000
H    -1.620000000    -2.402000000     3.121000000
O    -0.043000000    -6.431000000     0.446000000
H    -0.596000000    -6.355000000     1.223000000
H    -0.179000000    -7.328000000     0.142000000
O     4.130000000    -3.500000000    -2.938000000
H     3.649000000    -4.326000000    -3.005000000
H     4.881000000    -3.705000000    -2.382000000
O    -5.474000000    -2.440000000     5.006000000
H    -5.904000000    -1.966000000     4.294000000
H    -6.170000000    -2.965000000     5.399000000
O     0.228000000     0.149000000     6.327000000
H     1.076000000     0.558000000     6.495000000
H    -0.142000000     0.652000000     5.601000000
O    -1.075000000     6.756000000    -0.293000000
H    -1.369000000     6.587000000     0.602000000
H    -1.148000000     7.705000000    -0.394000000
O     2.550000000    -5.582000000    -2.266000000
H     2.126000000    -6.437000000    -2.190000000
H     1.844000000    -4.987000000    -2.521000000
O    -3.251000000     3.506000000    -1.766000000
H    -2.838000000     4.235000000    -1.304000000
H    -3.883000000     3.153000000    -1.141000000
O     3.471000000    -0.052000000    -6.527000000
H     3.952000000    -0.158000000    -7.348000000
H     4.130000000    -0.179000000    -5.845000000
O     1.607000000     3.470000000    -3.471000000
H     0.832000000     3.156000000    -3.938000000
H     1.274000000     4.152000000    -2.886000000
O    -6.565000000     2.593000000     2.808000000
H    -6.743000000     2.659000000     3.747000000
H    -6.625000000     1.656000000     2.619000000
O    -3.326000000    -0.960000000     5.071000000
H    -4.029000000    -1.592000000     5.223000000
H    -3.232000000    -0.932000000     4.119000000
O    -0.649000000    -0.676000000    -5.690000000
H    -0.015000000    -1.394000000    -5.680000000
H    -0.302000000    -0.060000000    -6.335000000
O     5.732000000    -2.424000000     0.517000000
H     6.558000000    -2.906000000     0.536000000
H     5.154000000    -2.916000000     1.100000000
O     0.998000000    -1.016000000     3.717000000
H     1.411000000    -1.273000000     4.542000000
H     1.686000000    -1.126000000     3.061000000
O     6.489000000     1.495000000    -1.277000000
H     6.015000000     2.136000000    -1.805000000
H     5.852000000     1.202000000    -0.625000000
O     4.705000000    -0.559000000    -3.670000000
H     4.418000000    -1.325000000    -3.173000000
H     3.963000000     0.043000000    -3.633000000
O    -2.418000000     1.617000000    -3.411000000
H    -1.954000000     1.955000000    -4.177000000
H    -2.617000000     2.394000000    -2.889000000
O    -5.851000000    -0.067000000     2.772000000
H    -4.917000000    -0.013000000     2.974000000
H    -5.890000000    -0.061000000     1.816000000
O     5.008000000     0.386000000     0.970000000
H     5.313000000    -0.448000000     0.613000000
H     4.233000000     0.157000000     1.483000000
O     4.344000000     4.238000000     0.812000000
H     4.547000000     5.080000000     1.220000000
H     3.682000000     3.848000000     1.383000000
O    -4.272000000     2.444000000     0.520000000
H    -3.675000000     1.951000000     1.083000000
H    -4.957000000     2.756000000     1.111000000
O    -0.944000000    -2.173000000     6.615000000
H    -0.323000000    -1.446000000     6.586000000
H    -1.507000000    -2.037000000     5.853000000
O    -3.933000000    -4.971000000     3.433000000
H    -4.633000000    -5.612000000     3.551000000
H    -4.319000000    -4.294000000     2.879000000
O    -3.079000000     4.371000000     4.464000000
H    -3.260000000     4.989000000     5.172000000
H    -3.357000000     3.522000000     4.809000000
O    -1.406000000    -5.854000000     2.762000000
H    -2.266000000    -5.785000000     2.348000000
H    -1.178000000    -4.954000000     2.993000000
O     7.340000000     0.261000000    -3.648000000
H     7.202000000     0.687000000    -2.801000000
H     6.491000000    -0.126000000    -3.861000000
O    -0.443000000    -4.286000000    -1.230000000
H    -0.175000000    -5.033000000    -0.695000000
H     0.307000000    -4.120000000    -1.801000000
O     1.064000000    -3.766000000    -3.718000000
H     1.261000000    -3.094000000    -4.370000000
H     0.484000000    -4.377000000    -4.173000000
