144
-2819.55183
O    -5.161000000     2.903000000     1.859000000
H    -4.331000000     3.266000000     2.168000000
H    -4.975000000     1.976000000     1.709000000
O    -2.287000000     0.951000000    -2.716000000
H    -1.994000000     1.333000000    -1.889000000
H    -1.624000000     1.218000000    -3.352000000
O     0.455000000    -6.584000000     0.583000000
H    -0.353000000    -6.206000000     0.236000000
H     0.448000000    -7.489000000     0.272000000
O    -0.585000000     2.013000000     5.034000000
H    -1.006000000     1.563000000     4.302000000
H     0.320000000     2.139000000     4.749000000
O    -2.241000000    -3.524000000    -1.495000000
H    -1.827000000    -4.157000000    -0.909000000
H    -1.536000000    -3.238000000    -2.076000000
O    -3.744000000    -1.598000000    -0.064000000
H    -3.085000000    -1.970000000    -0.651000000
H    -3.997000000    -0.774000000    -0.480000000
O    -0.109000000     6.145000000     2.697000000
H    -0.182000000     6.781000000     1.986000000
H    -0.562000000     6.556000000     3.434000000
O     5.465000000    -2.630000000    -4.268000000
H     4.706000000    -2.127000000    -4.563000000
H     5.318000000    -3.511000000    -4.612000000
O    -3.532000000    -3.301000000     2.063000000
H    -3.789000000    -2.855000000     1.256000000
H    -2.964000000    -2.675000000     2.513000000
O     4.449000000     0.163000000    -4.919000000
H     4.955000000     0.750000000    -5.480000000
H     4.599000000     0.490000000    -4.032000000
O     3.483000000     3.646000000    -0.730000000
H     4.407000000     3.469000000    -0.550000000
H     3.129000000     3.946000000     0.107000000
O    -3.804000000     0.983000000     5.465000000
H    -3.132000000     0.877000000     4.792000000
H    -4.631000000     0.859000000     5.000000000
O     3.075000000     3.748000000    -6.642000000
H     3.056000000     3.783000000    -5.686000000
H     2.882000000     4.643000000    -6.919000000
O     3.911000000    -2.015000000     3.362000000
H     3.502000000    -2.113000000     2.502000000
H     3.219000000    -2.243000000     3.983000000
O     2.003000000    -2.533000000    -4.808000000
H     1.402000000    -1.790000000    -4.758000000
H     2.058000000    -2.734000000    -5.743000000
O    -4.703000000     2.769000000     7.609000000
H    -3.919000000     3.231000000     7.906000000
H    -4.385000000     2.163000000     6.940000000
O     1.809000000     4.505000000     1.636000000
H     1.191000000     5.090000000     2.074000000
H     2.504000000     4.366000000     2.279000000
O    -1.928000000    -3.791000000    -5.244000000
H    -2.226000000    -2.947000000    -4.904000000
H    -1.859000000    -3.658000000    -6.189000000
O     3.145000000     1.660000000     1.565000000
H     4.013000000     1.870000000     1.221000000
H     2.580000000     1.638000000     0.792000000
O    -2.480000000    -2.436000000     5.544000000
H    -2.270000000    -2.005000000     4.715000000
H    -3.268000000    -1.990000000     5.853000000
O     2.977000000    -2.818000000    -2.047000000
H     2.782000000    -2.549000000    -2.944000000
H     2.468000000    -3.619000000    -1.921000000
O     4.333000000    -4.705000000     0.504000000
H     4.948000000    -5.251000000     0.014000000
H     4.026000000    -4.060000000    -0.132000000
O     0.546000000     1.459000000     7.611000000
H     1.169000000     2.098000000     7.958000000
H     0.329000000     1.787000000     6.738000000
O     0.335000000     5.287000000    -0.979000000
H     1.138000000     4.985000000    -0.554000000
H     0.279000000     6.216000000    -0.754000000
O    -5.083000000    -3.167000000    -2.468000000
H    -4.511000000    -3.339000000    -1.720000000
H    -4.596000000    -3.499000000    -3.222000000
O     1.825000000    -5.217000000    -1.607000000
H     1.409000000    -5.619000000    -0.844000000
H     1.285000000    -5.493000000    -2.348000000
O    -2.670000000     3.683000000    -0.272000000
H    -1.904000000     4.236000000    -0.425000000
H    -2.677000000     3.540000000     0.674000000
O     1.740000000     0.156000000    -5.762000000
H     1.773000000     0.527000000    -6.644000000
H     2.653000000    -0.037000000    -5.549000000
O    -2.572000000    -1.267000000    -4.364000000
H    -2.472000000    -0.667000000    -3.625000000
H    -2.738000000    -0.696000000    -5.114000000
O     3.568000000    -5.032000000    -4.836000000
H     3.095000000    -5.781000000    -4.474000000
H     2.917000000    -4.331000000    -4.870000000
O     2.768000000     4.240000000    -3.810000000
H     1.891000000     4.522000000    -3.549000000
H     3.251000000     4.168000000    -2.987000000
O    -5.094000000    -5.516000000     2.839000000
H    -4.742000000    -4.762000000     2.367000000
H    -6.042000000    -5.382000000     2.833000000
O    -3.615000000    -0.781000000     8.027000000
H    -4.309000000    -1.435000000     8.122000000
H    -3.885000000    -0.253000000     7.275000000
O    -0.490000000     2.081000000    -4.514000000
H     0.235000000     1.520000000    -4.789000000
H    -0.768000000     2.523000000    -5.317000000
O     2.762000000    -1.945000000     0.835000000
H     1.944000000    -1.780000000     1.305000000
H     2.497000000    -2.045000000    -0.079000000
O     2.096000000     1.323000000     4.038000000
H     2.164000000     0.372000000     3.944000000
H     2.218000000     1.660000000     3.150000000
O     5.408000000    -1.374000000    -1.673000000
H     4.537000000    -1.763000000    -1.593000000
H     5.665000000    -1.548000000    -2.578000000
O    -4.711000000     0.118000000     2.265000000
H    -3.867000000    -0.262000000     2.510000000
H    -5.104000000    -0.530000000     1.679000000
O    -2.474000000     3.336000000     2.507000000
H    -2.347000000     2.420000000     2.754000000
H    -2.309000000     3.826000000     3.313000000
O    -2.540000000    -4.546000000     7.189000000
H    -2.576000000    -3.660000000     6.830000000
H    -3.046000000    -4.497000000     8.001000000
O    -0.031000000     4.839000000    -3.907000000
H    -0.202000000     4.846000000    -2.966000000
H    -0.387000000     4.004000000    -4.210000000
O     1.521000000    -1.871000000     4.722000000
H     1.144000000    -1.710000000     5.587000000
H     1.070000000    -2.654000000     4.406000000
O     6.109000000     3.213000000    -2.383000000
H     6.344000000     4.035000000    -1.952000000
H     6.427000000     3.314000000    -3.281000000
O    -2.232000000     4.434000000     5.330000000
H    -2.629000000     4.325000000     6.194000000
H    -1.563000000     3.751000000     5.286000000
O    -0.481000000    -4.329000000     4.686000000
H    -1.278000000    -3.800000000     4.647000000
H    -0.647000000    -5.056000000     4.086000000
O     7.166000000     0.734000000    -2.796000000
H     6.886000000     1.601000000    -2.503000000
H     6.886000000     0.143000000    -2.097000000
O    -2.098000000    -5.322000000     0.525000000
H    -2.526000000    -4.597000000     0.980000000
H    -2.281000000    -6.088000000     1.069000000
O    -0.462000000    -5.404000000    -3.321000000
H    -0.885000000    -4.930000000    -4.037000000
H    -0.703000000    -6.319000000    -3.465000000
