144
-2830.23192
O    -2.879000000    -5.544000000     3.552000000
H    -3.493000000    -6.262000000     3.706000000
H    -3.394000000    -4.752000000     3.703000000
O    -3.968000000     0.238000000    -2.917000000
H    -3.812000000     0.291000000    -1.974000000
H    -3.204000000     0.660000000    -3.310000000
O     1.942000000     4.457000000    -6.001000000
H     1.259000000     4.635000000    -5.354000000
H     1.464000000     4.209000000    -6.792000000
O    -3.144000000     1.672000000     4.482000000
H    -3.657000000     1.992000000     5.224000000
H    -2.653000000     2.437000000     4.182000000
O    -4.636000000    -3.494000000     3.629000000
H    -5.082000000    -3.394000000     2.789000000
H    -5.275000000    -3.198000000     4.277000000
O     2.757000000    -1.318000000    -1.668000000
H     2.609000000    -2.262000000    -1.731000000
H     2.017000000    -0.994000000    -1.156000000
O    -1.838000000     3.847000000     3.964000000
H    -2.622000000     4.278000000     4.304000000
H    -1.575000000     4.383000000     3.216000000
O    -3.629000000     0.538000000    -0.266000000
H    -3.842000000     0.027000000     0.514000000
H    -3.455000000     1.419000000     0.064000000
O     3.304000000    -5.355000000     2.627000000
H     2.938000000    -5.369000000     3.512000000
H     3.097000000    -6.217000000     2.268000000
O     4.318000000    -3.304000000     5.045000000
H     3.969000000    -3.823000000     4.320000000
H     4.856000000    -2.634000000     4.623000000
O    -2.270000000     6.223000000     2.464000000
H    -3.099000000     6.196000000     1.985000000
H    -1.643000000     6.582000000     1.836000000
O     2.807000000     0.089000000     4.294000000
H     1.910000000    -0.053000000     4.594000000
H     2.872000000    -0.418000000     3.484000000
O    -2.686000000    -5.627000000     0.251000000
H    -3.285000000    -6.373000000     0.222000000
H    -2.540000000    -5.473000000     1.184000000
O    -2.507000000    -1.642000000     4.819000000
H    -2.414000000    -2.449000000     4.313000000
H    -3.328000000    -1.753000000     5.299000000
O    -0.341000000    -6.671000000     2.648000000
H    -0.710000000    -7.399000000     2.147000000
H    -1.105000000    -6.196000000     2.976000000
O    -3.988000000     5.444000000    -1.266000000
H    -3.236000000     5.396000000    -1.856000000
H    -4.546000000     4.712000000    -1.530000000
O     1.292000000    -2.538000000    -4.785000000
H     1.947000000    -2.436000000    -4.095000000
H     1.215000000    -3.485000000    -4.904000000
O     3.541000000     1.858000000     0.844000000
H     3.180000000     1.195000000     1.432000000
H     3.379000000     2.688000000     1.291000000
O     3.800000000    -1.153000000     2.244000000
H     3.767000000    -1.788000000     1.529000000
H     4.696000000    -0.817000000     2.225000000
O     0.154000000     6.107000000    -3.959000000
H     0.468000000     6.996000000    -4.125000000
H     0.680000000     5.802000000    -3.219000000
O    -0.644000000    -0.797000000    -5.360000000
H     0.001000000    -1.495000000    -5.246000000
H    -1.122000000    -1.039000000    -6.153000000
O     2.746000000     6.181000000     0.921000000
H     3.171000000     5.460000000     1.386000000
H     2.417000000     6.753000000     1.615000000
O    -4.950000000    -4.099000000    -1.214000000
H    -4.241000000    -4.468000000    -0.687000000
H    -4.638000000    -4.171000000    -2.117000000
O     1.567000000    -5.762000000     4.689000000
H     1.090000000    -6.269000000     4.032000000
H     1.936000000    -6.420000000     5.278000000
O     4.921000000     3.143000000    -4.963000000
H     3.984000000     3.134000000    -4.768000000
H     5.153000000     2.220000000    -5.067000000
O     3.657000000     1.297000000    -1.652000000
H     3.625000000     1.477000000    -0.712000000
H     3.526000000     0.351000000    -1.719000000
O    -3.233000000     3.197000000     0.431000000
H    -2.315000000     3.466000000     0.477000000
H    -3.705000000     3.995000000     0.193000000
O     5.846000000    -1.933000000    -0.707000000
H     5.547000000    -2.223000000    -1.570000000
H     5.202000000    -2.294000000    -0.098000000
O     2.235000000    -4.091000000    -1.638000000
H     2.921000000    -4.599000000    -2.071000000
H     1.417000000    -4.490000000    -1.936000000
O     4.622000000     3.923000000     2.963000000
H     3.810000000     3.627000000     3.375000000
H     4.598000000     4.877000000     3.047000000
O     2.503000000     8.759000000    -0.335000000
H     3.246000000     9.034000000     0.203000000
H     2.504000000     7.804000000    -0.275000000
O     2.423000000     0.762000000    -5.746000000
H     2.308000000     0.053000000    -5.114000000
H     2.186000000     1.554000000    -5.264000000
O     0.229000000    -1.005000000     5.253000000
H    -0.717000000    -1.155000000     5.251000000
H     0.599000000    -1.812000000     5.611000000
O     2.233000000     2.822000000    -3.500000000
H     2.715000000     2.387000000    -2.797000000
H     1.352000000     2.946000000    -3.146000000
O     2.209000000     2.966000000     4.072000000
H     1.451000000     3.244000000     4.586000000
H     2.551000000     2.206000000     4.542000000
O    -1.693000000     1.612000000    -3.949000000
H    -1.188000000     1.182000000    -4.639000000
H    -1.042000000     2.096000000    -3.442000000
O     4.593000000     6.088000000    -2.055000000
H     3.752000000     5.755000000    -2.366000000
H     4.901000000     5.423000000    -1.439000000
O    -3.584000000     8.096000000    -0.691000000
H    -2.668000000     7.865000000    -0.537000000
H    -3.924000000     7.381000000    -1.229000000
O    -2.146000000     4.817000000    -3.144000000
H    -1.642000000     4.081000000    -2.796000000
H    -1.485000000     5.463000000    -3.393000000
O     1.505000000     5.489000000    -1.522000000
H     0.811000000     4.869000000    -1.300000000
H     1.974000000     5.628000000    -0.699000000
O    -4.680000000    -2.624000000    -3.881000000
H    -4.225000000    -1.789000000    -3.769000000
H    -4.024000000    -3.203000000    -4.270000000
O    -3.437000000    -0.316000000     2.442000000
H    -3.337000000    -1.154000000     2.894000000
H    -2.999000000     0.317000000     3.011000000
O    -0.674000000     6.394000000     0.462000000
H    -0.634000000     5.536000000     0.040000000
H    -0.143000000     6.961000000    -0.097000000
O    -0.287000000     1.543000000     6.065000000
H    -0.680000000     2.044000000     5.351000000
H    -0.166000000     0.665000000     5.704000000
O     3.928000000    -3.509000000     0.535000000
H     3.837000000    -4.230000000     1.158000000
H     3.286000000    -3.701000000    -0.149000000
O     1.775000000    -3.135000000     5.900000000
H     1.595000000    -3.856000000     5.297000000
H     2.729000000    -3.122000000     5.980000000
O    -0.458000000    -5.825000000    -1.649000000
H    -1.171000000    -6.086000000    -2.231000000
H    -0.853000000    -5.814000000    -0.777000000
O    -2.421000000     3.721000000    -6.018000000
H    -2.217000000     3.554000000    -5.098000000
H    -3.244000000     3.257000000    -6.170000000
