144
-2823.09906
O    -3.625000000     1.161000000    -4.165000000
H    -2.972000000     1.504000000    -3.555000000
H    -4.429000000     1.104000000    -3.648000000
O    -1.214000000    -3.971000000    -3.567000000
H    -0.976000000    -4.063000000    -4.489000000
H    -1.435000000    -3.045000000    -3.467000000
O     1.168000000     2.894000000     4.248000000
H     0.445000000     2.276000000     4.140000000
H     1.787000000     2.442000000     4.820000000
O    -4.214000000    -2.632000000    -5.578000000
H    -3.556000000    -2.422000000    -4.916000000
H    -4.487000000    -1.781000000    -5.922000000
O     4.992000000     2.893000000     1.262000000
H     5.776000000     3.417000000     1.430000000
H     4.604000000     2.758000000     2.126000000
O    -7.455000000     0.606000000     3.651000000
H    -6.954000000     0.850000000     2.873000000
H    -7.590000000     1.431000000     4.118000000
O    -6.272000000     1.662000000     1.304000000
H    -6.536000000     2.050000000     0.469000000
H    -5.437000000     2.081000000     1.509000000
O     5.219000000    -1.826000000    -1.741000000
H     4.838000000    -2.659000000    -2.019000000
H     5.925000000    -2.074000000    -1.144000000
O    -4.601000000    -1.417000000     2.242000000
H    -4.423000000    -1.385000000     1.303000000
H    -4.045000000    -0.733000000     2.616000000
O     2.622000000     2.524000000    -4.004000000
H     3.176000000     2.483000000    -3.225000000
H     1.733000000     2.396000000    -3.673000000
O     1.282000000    -3.832000000    -5.106000000
H     0.850000000    -3.528000000    -5.905000000
H     0.920000000    -4.705000000    -4.956000000
O    -2.288000000     3.106000000     4.714000000
H    -3.199000000     2.837000000     4.594000000
H    -1.780000000     2.449000000     4.239000000
O    -0.630000000    -0.515000000    -6.551000000
H    -0.013000000     0.055000000    -7.010000000
H    -0.642000000    -1.320000000    -7.068000000
O     0.044000000     2.709000000     8.172000000
H    -0.714000000     2.163000000     7.964000000
H     0.788000000     2.109000000     8.136000000
O     2.834000000     0.780000000     5.326000000
H     3.300000000     0.391000000     6.066000000
H     3.307000000     0.468000000     4.554000000
O    -1.489000000     5.454000000     5.985000000
H    -1.768000000     4.589000000     5.683000000
H    -0.574000000     5.335000000     6.240000000
O    -2.207000000     4.531000000     0.937000000
H    -2.655000000     5.115000000     1.548000000
H    -1.307000000     4.491000000     1.260000000
O     3.836000000     3.333000000     3.810000000
H     3.902000000     3.499000000     4.750000000
H     2.898000000     3.370000000     3.625000000
O     4.608000000    -0.266000000     0.545000000
H     4.635000000     0.654000000     0.285000000
H     4.918000000    -0.742000000    -0.226000000
O    -1.584000000    -2.798000000     2.698000000
H    -2.235000000    -2.768000000     3.398000000
H    -1.792000000    -3.596000000     2.212000000
O     2.487000000    -3.017000000     0.016000000
H     2.669000000    -2.082000000    -0.084000000
H     1.939000000    -3.236000000    -0.737000000
O    -6.760000000    -2.301000000     3.342000000
H    -5.845000000    -2.124000000     3.124000000
H    -7.155000000    -1.434000000     3.437000000
O     0.317000000    -0.191000000     5.826000000
H     0.170000000     0.161000000     4.948000000
H     1.246000000    -0.034000000     5.994000000
O     0.170000000    -3.286000000     5.386000000
H     0.132000000    -2.366000000     5.650000000
H    -0.743000000    -3.572000000     5.381000000
O     1.735000000     5.339000000    -1.294000000
H     2.423000000     5.561000000    -0.667000000
H     0.919000000     5.547000000    -0.837000000
O     2.105000000     2.750000000    -6.739000000
H     2.555000000     2.414000000    -5.964000000
H     2.795000000     3.168000000    -7.255000000
O     4.953000000    -1.810000000    -6.519000000
H     4.050000000    -1.564000000    -6.318000000
H     5.477000000    -1.360000000    -5.856000000
O     0.984000000    -4.187000000    -1.831000000
H     0.655000000    -4.983000000    -1.414000000
H     0.316000000    -3.963000000    -2.479000000
O     5.426000000    -0.580000000    -4.150000000
H     5.385000000    -0.909000000    -3.252000000
H     4.511000000    -0.464000000    -4.405000000
O     3.409000000    -3.559000000    -3.188000000
H     2.799000000    -3.769000000    -2.481000000
H     2.865000000    -3.535000000    -3.975000000
O    -2.470000000    -5.219000000     0.043000000
H    -2.571000000    -4.603000000    -0.683000000
H    -3.362000000    -5.363000000     0.360000000
O    -0.351000000     3.135000000    -3.128000000
H    -0.217000000     3.906000000    -3.678000000
H    -0.784000000     3.472000000    -2.343000000
O    -5.443000000     0.217000000     7.393000000
H    -5.045000000     0.053000000     6.538000000
H    -6.302000000     0.588000000     7.191000000
O    -4.925000000    -5.058000000     1.625000000
H    -4.930000000    -4.102000000     1.587000000
H    -5.718000000    -5.321000000     1.157000000
O    -5.376000000     3.533000000     3.968000000
H    -6.288000000     3.306000000     4.148000000
H    -5.113000000     2.931000000     3.272000000
O    -3.684000000     0.063000000     5.141000000
H    -3.440000000    -0.806000000     5.463000000
H    -3.231000000     0.142000000     4.302000000
O     3.997000000    -0.862000000     3.163000000
H     3.208000000    -1.404000000     3.162000000
H     4.242000000    -0.793000000     2.240000000
O     4.603000000     2.097000000    -1.458000000
H     4.327000000     2.392000000    -0.590000000
H     5.364000000     2.638000000    -1.664000000
O    -4.652000000    -0.826000000    -1.143000000
H    -4.503000000     0.039000000    -1.524000000
H    -5.337000000    -1.213000000    -1.689000000
O     0.363000000     4.793000000     2.222000000
H     0.445000000     4.370000000     3.077000000
H     0.855000000     5.609000000     2.311000000
O    -3.938000000     2.455000000     1.933000000
H    -3.410000000     1.669000000     2.072000000
H    -3.324000000     3.094000000     1.570000000
O    -1.735000000     0.747000000     7.369000000
H    -0.940000000     0.383000000     6.980000000
H    -2.194000000     1.158000000     6.636000000
O    -2.129000000     1.924000000    -1.116000000
H    -1.817000000     2.507000000    -0.424000000
H    -1.758000000     1.070000000    -0.895000000
O     2.422000000    -0.784000000    -5.826000000
H     1.971000000    -0.327000000    -6.536000000
H     1.748000000    -1.339000000    -5.433000000
O     1.676000000    -2.450000000     3.007000000
H     1.073000000    -2.184000000     2.313000000
H     1.121000000    -2.556000000     3.780000000
O    -2.359000000    -2.521000000     5.806000000
H    -2.175000000    -2.188000000     6.684000000
H    -3.177000000    -3.008000000     5.901000000
O    -3.500000000    -3.093000000    -1.672000000
H    -3.760000000    -2.808000000    -2.548000000
H    -3.848000000    -2.420000000    -1.087000000
O    -2.276000000    -1.198000000    -4.316000000
H    -1.713000000    -1.228000000    -5.090000000
H    -2.552000000    -0.284000000    -4.255000000
