144
-2818.91280
O    -2.579000000    -0.888000000     4.568000000
H    -1.694000000    -0.951000000     4.927000000
H    -2.868000000    -1.796000000     4.482000000
O     0.287000000     3.097000000    -7.553000000
H    -0.343000000     3.759000000    -7.836000000
H     0.477000000     3.322000000    -6.642000000
O    -2.641000000     5.337000000     0.628000000
H    -2.557000000     4.442000000     0.957000000
H    -1.801000000     5.517000000     0.207000000
O    -0.399000000     4.049000000     3.819000000
H    -0.959000000     4.818000000     3.921000000
H    -0.772000000     3.578000000     3.073000000
O    -2.877000000     0.372000000     1.992000000
H    -2.753000000    -0.209000000     2.743000000
H    -3.043000000    -0.218000000     1.257000000
O     3.129000000    -6.702000000     3.980000000
H     2.368000000    -6.493000000     3.439000000
H     3.075000000    -7.648000000     4.115000000
O     0.561000000    -5.996000000     2.583000000
H     0.388000000    -6.023000000     1.642000000
H     0.134000000    -5.193000000     2.882000000
O     4.753000000    -4.037000000     1.654000000
H     4.920000000    -4.908000000     2.015000000
H     5.322000000    -3.983000000     0.887000000
O     4.262000000     4.200000000    -2.120000000
H     3.353000000     4.109000000    -2.405000000
H     4.312000000     5.084000000    -1.757000000
O     2.203000000     2.734000000     3.346000000
H     2.462000000     3.602000000     3.038000000
H     1.263000000     2.808000000     3.509000000
O    -5.919000000    -4.650000000     1.782000000
H    -5.370000000    -5.429000000     1.693000000
H    -5.324000000    -3.917000000     1.622000000
O    -3.387000000    -3.364000000     3.649000000
H    -4.251000000    -3.295000000     4.056000000
H    -3.545000000    -3.186000000     2.721000000
O    -2.817000000     6.241000000    -2.349000000
H    -2.799000000     5.604000000    -1.635000000
H    -1.932000000     6.604000000    -2.369000000
O     2.547000000     6.603000000    -4.624000000
H     2.263000000     7.438000000    -4.253000000
H     2.677000000     6.035000000    -3.865000000
O     1.774000000    -3.098000000    -3.366000000
H     2.486000000    -3.617000000    -3.743000000
H     0.977000000    -3.555000000    -3.634000000
O     4.121000000     1.090000000     1.678000000
H     3.871000000     1.823000000     2.241000000
H     5.077000000     1.082000000     1.707000000
O    -3.687000000    -6.905000000     2.986000000
H    -3.005000000    -7.543000000     3.196000000
H    -3.478000000    -6.615000000     2.098000000
O     3.708000000    -0.556000000    -0.553000000
H     3.916000000     0.305000000    -0.192000000
H     2.855000000    -0.774000000    -0.178000000
O     3.703000000     2.650000000    -6.003000000
H     2.849000000     3.082000000    -6.040000000
H     3.878000000     2.547000000    -5.068000000
O    -0.386000000     7.102000000    -3.462000000
H    -0.010000000     7.930000000    -3.162000000
H    -1.055000000     7.358000000    -4.096000000
O    -2.394000000     1.152000000    -4.665000000
H    -3.172000000     0.888000000    -5.157000000
H    -2.667000000     1.937000000    -4.189000000
O     1.733000000     5.348000000    -2.543000000
H     0.888000000     5.785000000    -2.647000000
H     1.526000000     4.529000000    -2.093000000
O    -4.635000000     2.578000000     2.404000000
H    -4.043000000     3.286000000     2.656000000
H    -4.060000000     1.898000000     2.053000000
O    -3.311000000    -0.660000000    -2.964000000
H    -2.724000000     0.077000000    -3.133000000
H    -3.190000000    -1.240000000    -3.716000000
O    -0.837000000    -4.194000000     4.255000000
H    -1.632000000    -3.743000000     3.971000000
H    -1.154000000    -4.934000000     4.773000000
O     1.580000000    -3.006000000     4.980000000
H     0.778000000    -3.293000000     4.543000000
H     2.155000000    -2.727000000     4.267000000
O     4.306000000     1.761000000    -3.210000000
H     3.555000000     1.329000000    -2.803000000
H     4.555000000     2.445000000    -2.588000000
O    -4.627000000     3.061000000    -2.944000000
H    -3.675000000     3.017000000    -2.860000000
H    -4.794000000     3.909000000    -3.354000000
O     2.529000000     4.737000000     1.267000000
H     2.230000000     3.942000000     0.825000000
H     2.924000000     5.263000000     0.572000000
O    -3.025000000    -4.755000000    -0.441000000
H    -3.481000000    -5.595000000    -0.396000000
H    -2.949000000    -4.573000000    -1.378000000
O    -0.584000000     0.597000000    -6.853000000
H    -1.082000000     0.694000000    -6.041000000
H    -0.209000000     1.464000000    -7.008000000
O     0.054000000    -0.675000000     5.659000000
H     0.588000000    -1.456000000     5.511000000
H     0.655000000     0.056000000     5.517000000
O     1.788000000     0.078000000    -3.548000000
H     1.301000000    -0.659000000    -3.181000000
H     1.126000000     0.754000000    -3.695000000
O     1.127000000     3.999000000    -5.205000000
H     0.870000000     3.535000000    -4.409000000
H     1.773000000     4.642000000    -4.910000000
O     3.569000000     6.918000000    -0.472000000
H     3.595000000     7.777000000    -0.050000000
H     2.808000000     6.959000000    -1.052000000
O    -3.348000000    -2.484000000    -5.021000000
H    -4.139000000    -2.961000000    -4.771000000
H    -3.021000000    -2.950000000    -5.790000000
O    -3.898000000    -2.697000000     1.013000000
H    -3.447000000    -3.168000000     0.312000000
H    -4.321000000    -1.960000000     0.572000000
O     2.656000000     0.555000000     4.988000000
H     2.955000000    -0.111000000     4.369000000
H     2.616000000     1.361000000     4.473000000
O    -4.333000000    -0.591000000    -0.444000000
H    -3.880000000    -0.585000000    -1.287000000
H    -5.219000000    -0.289000000    -0.646000000
O    -6.028000000     0.275000000    -2.553000000
H    -6.213000000     1.212000000    -2.626000000
H    -5.126000000     0.184000000    -2.859000000
O     2.787000000    -1.302000000    -5.831000000
H     1.844000000    -1.387000000    -5.972000000
H     2.865000000    -0.738000000    -5.061000000
O    -0.191000000    -5.861000000    -0.019000000
H    -1.005000000    -5.361000000    -0.089000000
H    -0.214000000    -6.462000000    -0.764000000
O    -0.043000000     5.550000000    -0.332000000
H     0.554000000     6.176000000     0.077000000
H     0.465000000     4.741000000    -0.397000000
O    -1.552000000     2.626000000     1.694000000
H    -2.014000000     1.791000000     1.768000000
H    -0.882000000     2.471000000     1.028000000
O     2.787000000    -6.604000000    -0.543000000
H     2.337000000    -6.097000000     0.133000000
H     3.682000000    -6.264000000    -0.541000000
O     3.535000000    -1.855000000     3.096000000
H     3.821000000    -2.690000000     2.726000000
H     3.848000000    -1.198000000     2.474000000
O    -0.981000000    -4.075000000    -4.051000000
H    -1.892000000    -3.783000000    -4.072000000
H    -1.022000000    -4.961000000    -3.692000000
O    -2.144000000     3.564000000    -3.211000000
H    -1.262000000     3.214000000    -3.082000000
H    -2.003000000     4.442000000    -3.566000000
