144
-2837.28612
O    -2.855000000    -4.044000000     5.056000000
H    -3.445000000    -4.785000000     5.192000000
H    -2.251000000    -4.079000000     5.797000000
O    -1.829000000    -2.623000000    -3.084000000
H    -2.593000000    -2.706000000    -3.654000000
H    -1.506000000    -1.736000000    -3.244000000
O    -3.993000000     1.104000000    -1.902000000
H    -3.810000000     1.259000000    -0.976000000
H    -4.524000000     0.308000000    -1.912000000
O    -1.649000000    -6.913000000    -1.430000000
H    -1.087000000    -6.785000000    -2.194000000
H    -1.692000000    -6.051000000    -1.017000000
O     1.181000000    -2.015000000     5.557000000
H     1.856000000    -1.341000000     5.488000000
H     1.582000000    -2.797000000     5.177000000
O    -1.268000000     6.566000000    -4.282000000
H    -0.665000000     6.001000000    -4.765000000
H    -1.437000000     7.299000000    -4.875000000
O    -5.019000000    -4.356000000     1.308000000
H    -5.108000000    -5.285000000     1.095000000
H    -5.692000000    -4.197000000     1.971000000
O    -2.594000000     0.843000000     4.070000000
H    -2.948000000     1.134000000     4.911000000
H    -2.673000000    -0.111000000     4.094000000
O    -4.492000000    -1.557000000     1.637000000
H    -4.287000000    -2.491000000     1.661000000
H    -4.415000000    -1.271000000     2.547000000
O     0.787000000     5.315000000     1.555000000
H     0.063000000     4.689000000     1.557000000
H     1.041000000     5.383000000     0.634000000
O     4.846000000    -1.001000000     3.112000000
H     4.687000000    -0.093000000     2.854000000
H     4.170000000    -1.188000000     3.763000000
O     4.400000000     1.505000000     2.699000000
H     4.778000000     2.269000000     2.263000000
H     3.807000000     1.872000000     3.354000000
O    -4.026000000    -1.887000000     4.159000000
H    -4.728000000    -1.985000000     4.801000000
H    -3.467000000    -2.651000000     4.297000000
O     4.863000000    -1.916000000    -2.053000000
H     5.250000000    -1.219000000    -1.522000000
H     3.946000000    -1.941000000    -1.782000000
O     4.518000000     1.099000000    -3.892000000
H     3.650000000     0.712000000    -3.775000000
H     4.791000000     1.345000000    -3.008000000
O     1.848000000     0.049000000    -4.002000000
H     1.410000000    -0.783000000    -3.824000000
H     1.434000000     0.370000000    -4.803000000
O     0.712000000     2.268000000    -5.503000000
H     0.346000000     2.338000000    -4.621000000
H     0.271000000     2.956000000    -6.001000000
O     1.929000000    -4.396000000     3.880000000
H     2.266000000    -4.202000000     3.006000000
H     1.049000000    -4.739000000     3.726000000
O     2.450000000     2.520000000     4.383000000
H     1.807000000     1.811000000     4.409000000
H     2.863000000     2.501000000     5.246000000
O     0.362000000     0.759000000     4.507000000
H    -0.586000000     0.885000000     4.451000000
H     0.468000000    -0.169000000     4.716000000
O    -1.572000000     3.552000000     1.617000000
H    -2.296000000     3.677000000     1.003000000
H    -1.624000000     2.629000000     1.864000000
O     4.394000000     2.455000000    -1.448000000
H     3.465000000     2.564000000    -1.653000000
H     4.531000000     2.991000000    -0.667000000
O     1.974000000     4.572000000    -3.918000000
H     1.873000000     3.912000000    -3.232000000
H     1.302000000     4.351000000    -4.563000000
O    -6.274000000    -1.858000000    -0.532000000
H    -5.858000000    -1.440000000     0.222000000
H    -6.100000000    -2.792000000    -0.414000000
O    -0.581000000     6.747000000    -1.627000000
H     0.327000000     6.446000000    -1.588000000
H    -0.815000000     6.683000000    -2.553000000
O     4.966000000     4.493000000     0.529000000
H     4.639000000     4.582000000     1.424000000
H     5.856000000     4.156000000     0.632000000
O     5.769000000    -0.974000000     0.435000000
H     5.749000000    -1.862000000     0.793000000
H     5.439000000    -0.423000000     1.145000000
O     1.803000000    -2.186000000    -0.920000000
H     1.457000000    -1.344000000    -0.625000000
H     1.809000000    -2.732000000    -0.134000000
O    -1.898000000     4.081000000    -1.498000000
H    -1.258000000     3.630000000    -2.047000000
H    -1.582000000     4.983000000    -1.452000000
O     4.746000000     4.213000000    -4.998000000
H     3.842000000     4.487000000    -4.843000000
H     4.827000000     3.381000000    -4.533000000
O    -2.577000000     2.691000000    -4.208000000
H    -1.800000000     2.971000000    -3.725000000
H    -2.792000000     1.834000000    -3.840000000
O     0.927000000    -1.798000000    -6.145000000
H     0.102000000    -1.710000000    -5.669000000
H     1.525000000    -2.203000000    -5.517000000
O     2.150000000     7.274000000    -3.374000000
H     2.022000000     6.326000000    -3.412000000
H     2.471000000     7.436000000    -2.487000000
O     0.274000000     4.912000000    -6.310000000
H     1.042000000     5.342000000    -6.686000000
H    -0.153000000     4.489000000    -7.055000000
O    -2.898000000    -4.339000000    -0.077000000
H    -3.610000000    -4.295000000     0.560000000
H    -3.320000000    -4.175000000    -0.920000000
O     3.196000000     4.647000000     2.562000000
H     2.838000000     3.891000000     3.028000000
H     2.449000000     5.014000000     2.090000000
O     1.785000000    -2.846000000    -3.605000000
H     1.610000000    -3.782000000    -3.696000000
H     1.624000000    -2.660000000    -2.680000000
O    -4.944000000     3.437000000    -1.046000000
H    -4.839000000     2.645000000    -1.574000000
H    -4.063000000     3.809000000    -0.995000000
O    -1.562000000    -0.101000000    -4.964000000
H    -2.199000000    -0.084000000    -5.678000000
H    -1.067000000     0.712000000    -5.065000000
O    -3.734000000     0.989000000     0.651000000
H    -3.742000000     1.635000000     1.358000000
H    -3.983000000     0.168000000     1.075000000
O     1.887000000     5.217000000    -0.837000000
H     2.804000000     5.489000000    -0.799000000
H     1.920000000     4.298000000    -1.103000000
O     3.217000000     1.879000000    -6.555000000
H     2.395000000     1.992000000    -6.078000000
H     3.810000000     1.480000000    -5.920000000
O    -3.782000000     5.407000000    -3.551000000
H    -2.963000000     5.886000000    -3.677000000
H    -3.546000000     4.490000000    -3.691000000
O     2.660000000    -3.963000000     0.919000000
H     2.423000000    -4.744000000     0.418000000
H     3.613000000    -3.910000000     0.844000000
O    -1.574000000    -2.355000000     6.909000000
H    -0.894000000    -2.636000000     6.296000000
H    -1.407000000    -1.422000000     7.041000000
O    -0.167000000    -4.306000000    -0.892000000
H    -0.054000000    -3.549000000    -1.467000000
H    -1.055000000    -4.215000000    -0.547000000
O    -1.502000000    -5.144000000     2.747000000
H    -2.194000000    -4.716000000     3.251000000
H    -1.650000000    -4.859000000     1.846000000
O    -0.030000000    -7.527000000     3.295000000
H    -0.011000000    -7.952000000     2.438000000
H    -0.479000000    -6.695000000     3.140000000
