144
-2796.83089
O    -4.261000000    -1.090000000    -5.928000000
H    -3.699000000    -0.402000000    -5.573000000
H    -4.800000000    -0.645000000    -6.583000000
O    -3.534000000    -3.698000000     0.420000000
H    -2.910000000    -3.548000000    -0.291000000
H    -3.000000000    -3.685000000     1.214000000
O    -2.148000000    -3.512000000     2.891000000
H    -2.482000000    -2.823000000     3.465000000
H    -1.197000000    -3.473000000     2.997000000
O     4.426000000    -5.034000000     4.293000000
H     4.207000000    -5.113000000     5.221000000
H     3.747000000    -4.461000000     3.935000000
O     0.439000000    -4.380000000     4.102000000
H     0.741000000    -5.281000000     3.993000000
H     1.236000000    -3.852000000     4.052000000
O     1.222000000     3.311000000    -3.115000000
H     0.440000000     3.495000000    -2.594000000
H     0.883000000     3.027000000    -3.964000000
O     4.405000000    -0.732000000    -1.077000000
H     4.316000000     0.173000000    -0.776000000
H     4.587000000    -1.232000000    -0.282000000
O     2.767000000    -2.834000000     4.336000000
H     2.247000000    -2.439000000     5.036000000
H     3.579000000    -2.328000000     4.326000000
O     1.622000000     1.638000000     4.898000000
H     2.430000000     1.898000000     5.339000000
H     1.083000000     1.256000000     5.591000000
O    -2.338000000    -7.264000000     0.537000000
H    -2.245000000    -7.613000000    -0.350000000
H    -1.561000000    -6.718000000     0.662000000
O     4.523000000    -5.533000000    -1.530000000
H     5.203000000    -5.909000000    -0.971000000
H     4.404000000    -6.177000000    -2.228000000
O     1.514000000    -2.278000000     6.638000000
H     0.900000000    -2.960000000     6.911000000
H     2.075000000    -2.141000000     7.401000000
O     2.967000000     4.389000000     2.841000000
H     3.231000000     3.779000000     3.531000000
H     3.042000000     3.882000000     2.033000000
O    -2.685000000     0.697000000     1.771000000
H    -2.300000000     0.544000000     0.908000000
H    -1.934000000     0.789000000     2.356000000
O     3.289000000     2.493000000     0.883000000
H     2.755000000     2.294000000     0.114000000
H     3.294000000     1.679000000     1.388000000
O    -1.150000000     4.471000000     4.297000000
H    -1.714000000     4.403000000     5.067000000
H    -0.539000000     5.176000000     4.510000000
O    -6.021000000     0.241000000    -2.101000000
H    -5.381000000    -0.385000000    -1.762000000
H    -5.491000000     0.924000000    -2.514000000
O     0.052000000     2.244000000    -5.386000000
H     0.693000000     1.718000000    -5.864000000
H    -0.502000000     1.601000000    -4.943000000
O    -0.073000000    -0.737000000    -4.642000000
H     0.341000000    -1.601000000    -4.626000000
H     0.350000000    -0.283000000    -5.371000000
O     4.517000000     0.257000000     2.051000000
H     4.505000000    -0.686000000     1.884000000
H     4.870000000     0.338000000     2.938000000
O     4.835000000    -2.737000000     0.971000000
H     5.427000000    -3.254000000     1.518000000
H     4.106000000    -3.327000000     0.782000000
O     2.096000000    -6.064000000     2.491000000
H     2.897000000    -6.377000000     2.071000000
H     1.576000000    -5.699000000     1.775000000
O    -2.051000000     4.751000000    -3.671000000
H    -2.171000000     3.858000000    -3.349000000
H    -1.338000000     5.104000000    -3.138000000
O     2.154000000    -6.189000000    -0.512000000
H     2.986000000    -5.777000000    -0.745000000
H     2.200000000    -7.061000000    -0.906000000
O    -0.818000000     1.708000000     3.389000000
H     0.039000000     1.297000000     3.496000000
H    -0.890000000     2.310000000     4.130000000
O     1.249000000     6.450000000    -2.363000000
H     1.201000000     5.998000000    -3.206000000
H     2.059000000     6.130000000    -1.966000000
O     5.145000000    -1.398000000     4.222000000
H     5.039000000    -0.795000000     4.957000000
H     6.074000000    -1.631000000     4.234000000
O     3.482000000     1.963000000    -2.981000000
H     3.202000000     1.076000000    -3.205000000
H     2.667000000     2.433000000    -2.802000000
O     2.869000000    -0.617000000    -3.584000000
H     3.289000000    -0.743000000    -2.733000000
H     2.232000000    -1.329000000    -3.644000000
O    -2.505000000    -3.506000000    -2.620000000
H    -1.856000000    -2.939000000    -3.039000000
H    -3.068000000    -3.797000000    -3.337000000
O    -5.757000000     1.798000000     0.823000000
H    -5.740000000     1.141000000     0.126000000
H    -4.930000000     1.674000000     1.289000000
O    -0.142000000     7.495000000     2.037000000
H    -0.517000000     6.693000000     1.674000000
H     0.776000000     7.474000000     1.768000000
O     5.831000000     3.930000000     0.442000000
H     6.385000000     3.570000000    -0.251000000
H     5.324000000     3.181000000     0.756000000
O    -4.754000000     2.812000000    -2.699000000
H    -3.858000000     2.488000000    -2.609000000
H    -4.653000000     3.729000000    -2.954000000
O    -2.703000000     3.795000000     2.311000000
H    -2.001000000     4.216000000     2.808000000
H    -2.324000000     2.967000000     2.017000000
O    -3.573000000     6.247000000    -5.243000000
H    -2.964000000     5.870000000    -5.879000000
H    -3.295000000     5.885000000    -4.402000000
O    -4.824000000    -3.458000000    -4.299000000
H    -5.779000000    -3.479000000    -4.251000000
H    -4.623000000    -2.621000000    -4.717000000
O    -0.117000000    -4.431000000     6.789000000
H    -0.956000000    -4.817000000     7.039000000
H    -0.064000000    -4.565000000     5.843000000
O    -2.842000000     1.224000000    -4.940000000
H    -2.950000000     2.167000000    -5.063000000
H    -2.505000000     1.135000000    -4.049000000
O    -0.728000000     5.487000000    -0.384000000
H    -0.241000000     5.972000000    -1.050000000
H    -0.792000000     4.598000000    -0.733000000
O    -1.704000000     0.696000000    -7.640000000
H    -1.843000000    -0.231000000    -7.832000000
H    -2.036000000     0.809000000    -6.749000000
O    -4.284000000    -1.291000000    -0.661000000
H    -3.599000000    -1.847000000    -1.033000000
H    -4.338000000    -1.558000000     0.257000000
O    -0.382000000     5.607000000    -5.922000000
H     0.443000000     5.846000000    -5.499000000
H    -0.857000000     5.111000000    -5.255000000
O    -4.597000000     7.045000000    -1.656000000
H    -5.554000000     7.023000000    -1.659000000
H    -4.338000000     6.164000000    -1.384000000
O     1.408000000    -3.228000000    -4.018000000
H     2.344000000    -3.414000000    -4.085000000
H     0.992000000    -4.091000000    -4.012000000
O    -3.374000000     5.009000000    -0.019000000
H    -2.526000000     5.245000000    -0.396000000
H    -3.160000000     4.634000000     0.835000000
O    -3.919000000    -5.918000000    -1.659000000
H    -3.886000000    -6.119000000    -0.723000000
H    -3.228000000    -5.268000000    -1.788000000
O    -0.166000000    -5.490000000     0.357000000
H     0.623000000    -5.852000000    -0.047000000
H    -0.359000000    -4.705000000    -0.157000000
