144
-2808.00103
O    -3.290000000    -2.747000000    -0.683000000
H    -2.349000000    -2.815000000    -0.524000000
H    -3.665000000    -2.556000000     0.177000000
O    -1.113000000    -2.998000000     3.107000000
H    -1.662000000    -2.990000000     3.890000000
H    -0.529000000    -2.248000000     3.215000000
O     3.150000000    -2.600000000     7.044000000
H     2.595000000    -3.255000000     6.622000000
H     3.004000000    -2.730000000     7.981000000
O     2.188000000     5.412000000     4.408000000
H     2.257000000     4.679000000     3.796000000
H     2.926000000     5.294000000     5.006000000
O     1.503000000    -3.783000000     5.344000000
H     0.976000000    -4.104000000     4.612000000
H     1.099000000    -2.948000000     5.581000000
O    -3.095000000     0.399000000     5.409000000
H    -2.415000000     0.459000000     4.738000000
H    -2.614000000     0.349000000     6.235000000
O    -0.822000000     5.222000000    -1.854000000
H    -1.131000000     4.343000000    -1.633000000
H    -0.823000000     5.243000000    -2.811000000
O     5.921000000    -2.096000000    -0.644000000
H     5.854000000    -1.151000000    -0.779000000
H     5.943000000    -2.201000000     0.308000000
O     0.179000000    -1.362000000     5.339000000
H    -0.182000000    -1.093000000     6.184000000
H     0.851000000    -0.708000000     5.147000000
O    -1.099000000     1.956000000     4.349000000
H    -0.582000000     2.349000000     5.052000000
H    -0.756000000     2.355000000     3.548000000
O    -3.062000000    -5.723000000    -0.911000000
H    -2.583000000    -6.346000000    -1.458000000
H    -2.433000000    -5.464000000    -0.237000000
O     2.930000000    -4.596000000    -1.198000000
H     3.862000000    -4.439000000    -1.352000000
H     2.485000000    -4.057000000    -1.853000000
O    -4.936000000     2.862000000    -7.347000000
H    -5.883000000     2.998000000    -7.379000000
H    -4.789000000     2.392000000    -6.526000000
O     1.627000000     6.497000000    -0.968000000
H     1.750000000     6.704000000    -0.041000000
H     0.978000000     5.793000000    -0.971000000
O     1.498000000     4.568000000     1.505000000
H     1.578000000     4.540000000     0.552000000
H     2.126000000     3.916000000     1.817000000
O     4.627000000    -3.939000000     4.608000000
H     4.057000000    -4.449000000     4.032000000
H     4.029000000    -3.372000000     5.095000000
O     0.514000000     0.950000000    -7.196000000
H     0.607000000     0.769000000    -6.261000000
H    -0.206000000     0.386000000    -7.479000000
O    -3.602000000     1.309000000     1.135000000
H    -3.759000000     2.086000000     1.671000000
H    -3.050000000     1.620000000     0.418000000
O     3.110000000     2.678000000     3.110000000
H     3.877000000     2.658000000     2.538000000
H     3.058000000     1.794000000     3.473000000
O    -0.825000000     4.764000000     2.587000000
H    -0.508000000     5.192000000     3.383000000
H    -0.029000000     4.514000000     2.117000000
O    -6.508000000     2.629000000    -2.132000000
H    -6.678000000     2.228000000    -1.280000000
H    -5.768000000     2.136000000    -2.486000000
O     1.071000000     3.931000000    -4.273000000
H     0.740000000     4.762000000    -4.613000000
H     0.591000000     3.263000000    -4.764000000
O     0.481000000     0.431000000    -4.457000000
H    -0.049000000     0.968000000    -3.868000000
H     1.278000000     0.246000000    -3.960000000
O     4.945000000    -0.608000000     2.599000000
H     5.354000000    -1.450000000     2.797000000
H     4.174000000    -0.577000000     3.165000000
O     2.724000000    -5.690000000     2.844000000
H     3.451000000    -5.847000000     2.242000000
H     2.005000000    -5.401000000     2.282000000
O    -2.304000000     4.108000000    -4.165000000
H    -2.449000000     3.845000000    -5.074000000
H    -2.183000000     3.284000000    -3.693000000
O     1.027000000    -5.539000000     0.517000000
H     0.792000000    -6.356000000     0.079000000
H     1.625000000    -5.105000000    -0.091000000
O     5.087000000     1.702000000     1.102000000
H     4.966000000     0.921000000     1.642000000
H     6.036000000     1.819000000     1.059000000
O    -4.154000000    -1.711000000     1.640000000
H    -4.084000000    -0.759000000     1.708000000
H    -4.632000000    -1.973000000     2.427000000
O    -2.337000000     7.149000000    -0.474000000
H    -2.725000000     7.805000000    -1.054000000
H    -1.772000000     6.629000000    -1.046000000
O     3.035000000    -0.495000000     4.868000000
H     2.922000000     0.342000000     5.316000000
H     2.951000000    -1.151000000     5.560000000
O    -5.526000000     7.227000000    -0.501000000
H    -4.781000000     6.704000000    -0.797000000
H    -6.267000000     6.621000000    -0.518000000
O     1.979000000     3.521000000    -1.853000000
H     2.030000000     2.566000000    -1.868000000
H     1.484000000     3.747000000    -2.640000000
O     2.281000000     0.661000000    -2.374000000
H     3.106000000     0.176000000    -2.415000000
H     1.683000000     0.075000000    -1.911000000
O    -3.281000000    -2.355000000    -3.510000000
H    -3.497000000    -2.376000000    -2.578000000
H    -4.100000000    -2.108000000    -3.940000000
O    -5.891000000     4.309000000     1.349000000
H    -5.274000000     4.219000000     0.622000000
H    -5.435000000     4.861000000     1.983000000
O     4.266000000     3.789000000    -0.299000000
H     4.295000000     3.017000000     0.266000000
H     3.431000000     3.715000000    -0.762000000
O    -4.262000000     1.473000000    -3.426000000
H    -4.244000000     0.637000000    -3.891000000
H    -3.406000000     1.531000000    -3.002000000
O    -3.135000000     3.675000000     3.515000000
H    -2.339000000     3.717000000     2.985000000
H    -3.030000000     2.883000000     4.042000000
O     2.353000000     1.520000000     6.451000000
H     2.267000000     1.495000000     7.404000000
H     1.788000000     2.243000000     6.178000000
O    -4.972000000     4.959000000    -3.138000000
H    -4.022000000     4.871000000    -3.059000000
H    -5.310000000     4.084000000    -2.950000000
O    -1.198000000    -3.903000000    -4.290000000
H    -1.197000000    -4.665000000    -3.711000000
H    -1.914000000    -3.357000000    -3.966000000
O    -2.028000000     0.187000000    -5.948000000
H    -2.953000000    -0.033000000    -5.832000000
H    -1.699000000     0.311000000    -5.057000000
O    -3.684000000     4.580000000    -0.160000000
H    -3.369000000     5.483000000    -0.117000000
H    -3.023000000     4.120000000    -0.678000000
O    -6.178000000     0.300000000     0.143000000
H    -6.025000000    -0.597000000    -0.153000000
H    -5.303000000     0.646000000     0.318000000
O     2.126000000    -3.677000000    -3.721000000
H     2.514000000    -2.947000000    -4.203000000
H     1.227000000    -3.728000000    -4.045000000
O    -4.741000000    -0.385000000    -5.938000000
H    -5.306000000    -0.826000000    -5.304000000
H    -5.342000000    -0.053000000    -6.604000000
O    -1.545000000    -4.942000000     1.168000000
H    -0.692000000    -5.263000000     0.877000000
H    -1.342000000    -4.180000000     1.711000000
