144
-2810.86900
O     0.710000000     3.112000000    -7.391000000
H     0.462000000     2.496000000    -6.702000000
H     1.651000000     2.977000000    -7.504000000
O    -6.612000000    -1.955000000     4.000000000
H    -6.871000000    -1.235000000     3.425000000
H    -5.656000000    -1.910000000     4.025000000
O    -0.252000000     4.297000000     0.633000000
H    -0.802000000     3.515000000     0.682000000
H    -0.434000000     4.768000000     1.446000000
O    -3.298000000    -3.941000000    -3.218000000
H    -3.195000000    -3.646000000    -2.314000000
H    -2.927000000    -4.824000000    -3.226000000
O     5.300000000     4.625000000    -2.666000000
H     4.985000000     5.314000000    -2.082000000
H     5.603000000     3.933000000    -2.078000000
O     4.301000000     6.497000000    -1.124000000
H     4.171000000     7.394000000    -0.816000000
H     4.120000000     5.952000000    -0.358000000
O    -3.836000000    -5.715000000     3.489000000
H    -4.180000000    -6.601000000     3.369000000
H    -4.545000000    -5.142000000     3.198000000
O    -0.026000000    -0.761000000     4.829000000
H    -0.242000000    -1.184000000     5.660000000
H    -0.516000000    -1.257000000     4.173000000
O     3.570000000    -1.805000000    -3.965000000
H     2.860000000    -2.101000000    -3.396000000
H     3.735000000    -2.547000000    -4.547000000
O    -3.751000000    -3.716000000     0.364000000
H    -3.830000000    -2.813000000     0.056000000
H    -2.848000000    -3.785000000     0.674000000
O    -5.974000000    -3.926000000     1.937000000
H    -5.880000000    -3.091000000     2.394000000
H    -5.183000000    -3.997000000     1.402000000
O    -2.714000000     0.297000000     5.962000000
H    -2.082000000     0.843000000     5.494000000
H    -2.185000000    -0.207000000     6.580000000
O    -1.746000000    -3.013000000     5.522000000
H    -2.150000000    -3.851000000     5.750000000
H    -1.687000000    -3.027000000     4.567000000
O     2.670000000     4.618000000     0.979000000
H     1.945000000     4.515000000     0.363000000
H     2.248000000     4.818000000     1.815000000
O     0.848000000    -7.081000000     3.317000000
H     0.258000000    -6.448000000     2.907000000
H     0.349000000    -7.898000000     3.332000000
O    -0.336000000     2.283000000     7.653000000
H    -0.259000000     2.273000000     6.699000000
H    -0.821000000     3.086000000     7.846000000
O    -2.708000000    -2.128000000     8.202000000
H    -2.215000000    -1.344000000     8.445000000
H    -2.443000000    -2.307000000     7.299000000
O    -0.449000000     2.326000000    -5.119000000
H    -0.258000000     1.536000000    -4.613000000
H    -0.774000000     2.952000000    -4.471000000
O     5.121000000     3.672000000     1.158000000
H     5.187000000     2.718000000     1.111000000
H     4.211000000     3.861000000     0.928000000
O    -0.580000000     1.923000000     4.478000000
H    -0.122000000     1.086000000     4.393000000
H    -0.055000000     2.536000000     3.963000000
O     0.075000000    -4.792000000    -0.255000000
H    -0.617000000    -5.043000000    -0.866000000
H    -0.359000000    -4.219000000     0.377000000
O    -1.217000000    -5.110000000     3.067000000
H    -1.292000000    -4.274000000     2.608000000
H    -2.118000000    -5.342000000     3.292000000
O     2.030000000    -3.660000000    -2.684000000
H     1.418000000    -3.863000000    -1.976000000
H     1.662000000    -4.097000000    -3.451000000
O    -1.013000000    -0.423000000    -6.163000000
H    -0.137000000    -0.542000000    -6.530000000
H    -1.267000000     0.460000000    -6.431000000
O     1.093000000    -3.514000000     6.914000000
H     1.060000000    -3.029000000     7.739000000
H     0.201000000    -3.465000000     6.571000000
O    -4.373000000    -0.751000000     0.679000000
H    -5.318000000    -0.787000000     0.830000000
H    -3.992000000    -0.708000000     1.556000000
O    -1.767000000     4.093000000    -2.737000000
H    -2.026000000     3.663000000    -1.922000000
H    -2.581000000     4.174000000    -3.234000000
O    -2.939000000     2.474000000     3.643000000
H    -2.934000000     2.227000000     2.718000000
H    -2.130000000     2.102000000     3.995000000
O     1.478000000     3.227000000     3.435000000
H     2.194000000     2.698000000     3.085000000
H     1.913000000     3.927000000     3.922000000
O    -3.478000000     0.505000000    -3.986000000
H    -4.240000000     0.858000000    -4.444000000
H    -2.964000000     0.076000000    -4.670000000
O    -1.067000000    -3.267000000    -6.094000000
H    -1.827000000    -3.598000000    -5.616000000
H    -1.031000000    -2.337000000    -5.873000000
O     3.320000000     2.700000000    -5.890000000
H     3.251000000     3.556000000    -5.467000000
H     2.852000000     2.105000000    -5.305000000
O    -2.772000000     3.111000000     0.631000000
H    -3.651000000     3.407000000     0.867000000
H    -2.918000000     2.357000000     0.060000000
O    -5.448000000    -6.532000000     0.461000000
H    -5.307000000    -7.101000000    -0.295000000
H    -5.088000000    -5.686000000     0.195000000
O     1.507000000     6.404000000    -2.330000000
H     2.175000000     5.875000000    -2.766000000
H     0.677000000     6.003000000    -2.589000000
O     2.312000000     0.541000000    -4.707000000
H     2.784000000    -0.245000000    -4.431000000
H     2.074000000     0.369000000    -5.618000000
O     1.420000000     4.627000000    -4.467000000
H     1.432000000     4.669000000    -5.424000000
H     1.198000000     3.717000000    -4.271000000
O    -3.372000000     1.199000000    -1.258000000
H    -3.845000000     0.469000000    -0.860000000
H    -3.055000000     0.853000000    -2.093000000
O    -1.550000000    -7.588000000     1.743000000
H    -1.547000000    -6.634000000     1.668000000
H    -1.586000000    -7.900000000     0.838000000
O     2.488000000     0.240000000     4.792000000
H     1.628000000    -0.132000000     4.599000000
H     2.791000000     0.593000000     3.955000000
O    -2.012000000     6.406000000    -0.042000000
H    -1.158000000     6.825000000     0.067000000
H    -1.822000000     5.468000000    -0.022000000
O    -1.995000000    -6.035000000    -2.028000000
H    -1.389000000    -6.706000000    -2.343000000
H    -2.723000000    -6.528000000    -1.650000000
O     4.822000000     0.973000000     0.243000000
H     5.475000000     1.478000000    -0.241000000
H     4.365000000     0.467000000    -0.428000000
O     3.717000000     1.565000000     2.771000000
H     4.552000000     1.733000000     3.207000000
H     3.960000000     1.168000000     1.934000000
O     3.056000000    -4.469000000     1.073000000
H     2.111000000    -4.312000000     1.067000000
H     3.150000000    -5.352000000     1.430000000
O     4.249000000    -1.405000000    -1.224000000
H     4.686000000    -2.256000000    -1.203000000
H     3.991000000    -1.291000000    -2.138000000
O     3.798000000    -1.711000000     1.808000000
H     3.440000000    -2.518000000     1.440000000
H     3.898000000    -1.128000000     1.055000000
O    -3.846000000    -1.112000000     3.549000000
H    -3.031000000    -1.594000000     3.415000000
H    -3.727000000    -0.670000000     4.390000000
