144
-2817.26548
O    -5.676000000     0.066000000    -0.358000000
H    -5.345000000    -0.814000000    -0.181000000
H    -4.996000000     0.650000000    -0.020000000
O     4.694000000     3.116000000     2.055000000
H     3.743000000     3.183000000     1.970000000
H     4.831000000     2.740000000     2.925000000
O     7.294000000    -2.184000000    -3.176000000
H     6.687000000    -1.968000000    -2.469000000
H     7.189000000    -1.472000000    -3.808000000
O     1.815000000     1.652000000    -6.890000000
H     1.959000000     0.812000000    -7.326000000
H     1.449000000     1.419000000    -6.037000000
O    -4.571000000    -0.633000000     4.979000000
H    -4.858000000     0.238000000     5.253000000
H    -4.438000000    -0.556000000     4.035000000
O    -5.455000000     3.964000000     2.662000000
H    -4.683000000     4.529000000     2.679000000
H    -5.904000000     4.147000000     3.488000000
O    -1.570000000     6.075000000    -2.946000000
H    -1.753000000     5.902000000    -2.023000000
H    -0.616000000     6.037000000    -3.013000000
O     3.584000000    -4.017000000    -3.391000000
H     3.287000000    -3.154000000    -3.680000000
H     2.790000000    -4.451000000    -3.078000000
O    -2.637000000     3.148000000     5.168000000
H    -1.871000000     2.592000000     5.310000000
H    -2.603000000     3.371000000     4.237000000
O     1.951000000     2.227000000     1.677000000
H     1.956000000     1.478000000     2.272000000
H     1.918000000     1.839000000     0.802000000
O     6.294000000    -3.678000000     2.455000000
H     6.363000000    -2.920000000     1.874000000
H     5.475000000    -4.101000000     2.200000000
O     3.183000000    -1.340000000    -4.022000000
H     2.373000000    -0.838000000    -3.930000000
H     3.604000000    -0.974000000    -4.800000000
O    -8.139000000     0.996000000    -0.004000000
H    -8.151000000     1.149000000     0.941000000
H    -7.220000000     0.826000000    -0.208000000
O     1.876000000     4.035000000    -3.273000000
H     1.558000000     4.818000000    -2.823000000
H     1.325000000     3.967000000    -4.053000000
O    -3.325000000    -2.263000000    -3.190000000
H    -4.237000000    -2.461000000    -2.978000000
H    -2.831000000    -2.565000000    -2.428000000
O    -4.843000000     0.384000000     2.499000000
H    -5.410000000     1.127000000     2.706000000
H    -4.105000000     0.770000000     2.027000000
O    -2.896000000     3.846000000    -3.456000000
H    -2.283000000     4.541000000    -3.214000000
H    -2.856000000     3.228000000    -2.726000000
O    -5.329000000     1.824000000    -2.988000000
H    -5.373000000     2.712000000    -3.341000000
H    -5.012000000     1.938000000    -2.092000000
O     3.154000000    -6.517000000    -0.523000000
H     2.606000000    -7.170000000    -0.087000000
H     3.582000000    -6.999000000    -1.231000000
O     2.203000000     0.594000000     4.202000000
H     2.059000000    -0.137000000     4.803000000
H     2.815000000     1.167000000     4.664000000
O    -3.044000000     3.491000000    -6.393000000
H    -3.253000000     3.744000000    -5.493000000
H    -2.862000000     2.553000000    -6.341000000
O     0.862000000    -5.022000000    -3.224000000
H     0.728000000    -5.085000000    -2.279000000
H     1.017000000    -5.924000000    -3.505000000
O     5.570000000    -0.410000000     0.565000000
H     5.023000000     0.054000000    -0.068000000
H     5.722000000    -1.267000000     0.167000000
O     5.576000000    -0.421000000     3.730000000
H     4.755000000    -0.308000000     4.208000000
H     5.320000000    -0.410000000     2.808000000
O    -1.217000000    -2.546000000    -1.136000000
H    -0.713000000    -3.203000000    -0.657000000
H    -0.850000000    -1.709000000    -0.853000000
O     0.812000000     0.083000000    -4.615000000
H     0.070000000     0.687000000    -4.605000000
H     0.420000000    -0.781000000    -4.489000000
O     0.037000000     4.173000000     1.735000000
H     0.797000000     3.592000000     1.686000000
H     0.292000000     4.849000000     2.363000000
O     2.067000000    -1.755000000     5.935000000
H     2.399000000    -2.585000000     5.590000000
H     2.740000000    -1.466000000     6.551000000
O     4.529000000     0.888000000    -2.141000000
H     3.986000000     0.310000000    -2.677000000
H     5.235000000     1.164000000    -2.727000000
O    -0.283000000     1.677000000     4.954000000
H     0.540000000     1.455000000     4.519000000
H    -0.497000000     0.901000000     5.472000000
O    -5.440000000     4.822000000    -3.673000000
H    -5.512000000     5.773000000    -3.757000000
H    -4.499000000     4.659000000    -3.603000000
O    -1.288000000     2.013000000    -4.736000000
H    -1.983000000     1.356000000    -4.692000000
H    -1.676000000     2.798000000    -4.350000000
O    -6.588000000     5.902000000     0.002000000
H    -7.238000000     5.566000000    -0.615000000
H    -5.863000000     5.279000000    -0.052000000
O    -1.335000000     4.760000000    -0.499000000
H    -0.733000000     4.624000000     0.233000000
H    -1.784000000     3.921000000    -0.599000000
O     0.160000000    -4.896000000    -0.146000000
H    -0.204000000    -5.237000000     0.671000000
H     1.107000000    -4.903000000    -0.007000000
O     2.841000000     2.690000000    -1.198000000
H     3.279000000     1.929000000    -1.578000000
H     2.464000000     3.149000000    -1.948000000
O    -0.252000000    -0.630000000     6.662000000
H     0.484000000    -1.037000000     6.205000000
H    -0.243000000    -1.027000000     7.533000000
O    -2.536000000     7.637000000     0.004000000
H    -2.304000000     6.709000000     0.045000000
H    -3.438000000     7.644000000    -0.316000000
O    -5.455000000    -2.502000000     0.353000000
H    -5.206000000    -3.287000000    -0.135000000
H    -6.320000000    -2.707000000     0.711000000
O    -2.592000000    -1.991000000     6.303000000
H    -2.086000000    -1.189000000     6.435000000
H    -3.323000000    -1.723000000     5.745000000
O    -4.684000000     3.953000000    -0.087000000
H    -4.967000000     3.552000000     0.735000000
H    -3.896000000     3.468000000    -0.331000000
O     7.852000000     1.015000000     1.012000000
H     7.097000000     0.456000000     0.827000000
H     7.870000000     1.639000000     0.287000000
O     6.269000000    -2.865000000    -0.429000000
H     6.206000000    -3.801000000    -0.240000000
H     7.201000000    -2.665000000    -0.340000000
O    -2.386000000     3.534000000     2.540000000
H    -1.508000000     3.836000000     2.307000000
H    -2.561000000     2.815000000     1.933000000
O    -3.133000000     0.184000000    -4.206000000
H    -3.272000000    -0.755000000    -4.079000000
H    -3.821000000     0.600000000    -3.686000000
O     4.283000000    -5.380000000     1.587000000
H     3.830000000    -5.639000000     0.784000000
H     3.816000000    -5.839000000     2.285000000
O    -0.206000000    -2.434000000    -4.029000000
H    -0.925000000    -2.437000000    -3.397000000
H     0.233000000    -3.273000000    -3.896000000
O    -1.478000000    -1.164000000    -6.449000000
H    -1.217000000    -1.961000000    -5.987000000
H    -2.036000000    -0.698000000    -5.826000000
