144
-2800.80421
O     1.729000000     3.500000000    -4.673000000
H     2.334000000     3.359000000    -3.945000000
H     2.144000000     3.066000000    -5.418000000
O    -7.158000000    -3.729000000     3.448000000
H    -7.391000000    -3.388000000     2.585000000
H    -6.229000000    -3.521000000     3.545000000
O    -0.811000000     3.936000000     0.734000000
H    -1.467000000     4.606000000     0.540000000
H    -1.313000000     3.211000000     1.108000000
O    -2.752000000    -2.895000000    -3.440000000
H    -3.208000000    -2.942000000    -2.600000000
H    -2.097000000    -3.592000000    -3.395000000
O     6.446000000     3.406000000    -0.603000000
H     5.741000000     3.082000000    -0.043000000
H     6.961000000     2.627000000    -0.814000000
O     4.400000000     6.307000000     0.282000000
H     4.762000000     5.485000000     0.610000000
H     3.466000000     6.131000000     0.172000000
O    -0.735000000    -4.658000000    -3.704000000
H    -0.251000000    -5.483000000    -3.650000000
H    -0.324000000    -4.187000000    -4.430000000
O    -1.391000000    -3.846000000     3.862000000
H    -1.932000000    -3.526000000     4.585000000
H    -1.933000000    -3.720000000     3.084000000
O     4.863000000    -0.621000000    -3.169000000
H     5.335000000    -0.887000000    -2.379000000
H     5.236000000    -1.163000000    -3.864000000
O    -4.279000000    -2.771000000    -1.265000000
H    -4.755000000    -2.011000000    -0.931000000
H    -3.625000000    -2.959000000    -0.592000000
O    -5.334000000    -5.917000000     0.005000000
H    -4.952000000    -5.373000000    -0.684000000
H    -5.574000000    -6.731000000    -0.437000000
O     5.839000000     1.767000000    -3.012000000
H     6.592000000     1.437000000    -2.523000000
H     5.306000000     0.991000000    -3.184000000
O    -4.302000000    -3.321000000     3.479000000
H    -4.150000000    -3.088000000     4.395000000
H    -3.712000000    -2.752000000     2.985000000
O     2.122000000     4.050000000     1.999000000
H     1.300000000     3.767000000     1.598000000
H     1.938000000     4.061000000     2.938000000
O     4.598000000    -3.678000000    -1.477000000
H     3.692000000    -3.425000000    -1.303000000
H     4.689000000    -4.540000000    -1.072000000
O    -3.009000000    -3.031000000     5.840000000
H    -2.505000000    -3.142000000     6.646000000
H    -3.709000000    -2.423000000     6.077000000
O    -2.339000000    -1.549000000    -6.023000000
H    -2.385000000    -1.929000000    -5.146000000
H    -2.491000000    -0.614000000    -5.887000000
O     4.962000000     3.881000000     1.769000000
H     5.066000000     3.090000000     2.299000000
H     4.029000000     4.087000000     1.825000000
O    -0.672000000    -6.988000000     3.434000000
H    -1.044000000    -7.536000000     2.742000000
H    -0.964000000    -6.102000000     3.221000000
O    -1.301000000    -0.426000000     5.064000000
H    -1.165000000    -1.260000000     4.615000000
H    -0.420000000    -0.068000000     5.175000000
O     0.422000000    -4.356000000     0.752000000
H     0.641000000    -5.234000000     0.441000000
H    -0.444000000    -4.451000000     1.148000000
O    -5.736000000     1.762000000     5.211000000
H    -5.571000000     1.548000000     6.130000000
H    -5.077000000     1.264000000     4.727000000
O    -2.382000000    -5.504000000     1.246000000
H    -2.507000000    -4.555000000     1.261000000
H    -3.269000000    -5.863000000     1.221000000
O     2.154000000    -2.948000000    -0.640000000
H     1.909000000    -2.053000000    -0.403000000
H     1.506000000    -3.498000000    -0.200000000
O    -5.575000000    -1.516000000     0.953000000
H    -6.226000000    -2.158000000     1.236000000
H    -4.850000000    -1.622000000     1.569000000
O    -1.698000000     1.158000000    -4.721000000
H    -1.311000000     1.715000000    -4.045000000
H    -1.200000000     1.362000000    -5.513000000
O    -3.215000000     3.171000000     2.863000000
H    -3.375000000     2.326000000     2.443000000
H    -3.164000000     2.968000000     3.797000000
O     1.052000000     1.112000000     4.916000000
H     1.696000000     1.219000000     4.215000000
H     1.418000000     1.598000000     5.654000000
O    -3.710000000     0.053000000    -1.530000000
H    -4.142000000     0.469000000    -2.276000000
H    -2.903000000    -0.312000000    -1.894000000
O     0.552000000    -3.211000000    -5.662000000
H     0.311000000    -2.920000000    -6.541000000
H     0.916000000    -2.432000000    -5.243000000
O    -2.729000000    -6.517000000    -2.851000000
H    -2.232000000    -5.710000000    -2.989000000
H    -3.478000000    -6.441000000    -3.443000000
O     5.194000000     2.240000000    -6.011000000
H     4.373000000     1.773000000    -6.165000000
H     5.336000000     2.171000000    -5.067000000
O    -1.250000000     2.536000000    -1.915000000
H    -0.687000000     3.310000000    -1.947000000
H    -1.025000000     2.111000000    -1.087000000
O    -7.315000000     0.738000000     0.115000000
H    -6.511000000     0.251000000     0.297000000
H    -7.728000000     0.848000000     0.971000000
O     2.086000000     5.174000000    -1.500000000
H     2.568000000     5.353000000    -2.307000000
H     2.473000000     4.365000000    -1.164000000
O    -1.506000000     2.617000000     5.403000000
H    -0.906000000     1.913000000     5.155000000
H    -1.099000000     3.411000000     5.058000000
O     2.204000000    -1.139000000    -4.569000000
H     3.057000000    -1.135000000    -4.135000000
H     2.206000000    -0.348000000    -5.108000000
O     2.670000000     0.910000000    -6.374000000
H     2.110000000     1.401000000    -6.975000000
H     2.933000000     0.136000000    -6.871000000
O     4.494000000     3.979000000    -2.575000000
H     4.825000000     3.082000000    -2.633000000
H     4.988000000     4.370000000    -1.854000000
O    -3.740000000     1.403000000     0.614000000
H    -3.335000000     0.652000000     1.047000000
H    -3.959000000     1.084000000    -0.262000000
O    -1.304000000    -7.929000000     1.151000000
H    -1.646000000    -7.076000000     0.883000000
H    -1.608000000    -8.533000000     0.473000000
O    -3.381000000     4.671000000     0.456000000
H    -3.683000000     3.858000000     0.862000000
H    -4.177000000     5.189000000     0.338000000
O     3.897000000     0.092000000     4.079000000
H     3.872000000     0.115000000     3.122000000
H     4.509000000     0.788000000     4.319000000
O     7.825000000     1.121000000    -1.385000000
H     8.685000000     1.065000000    -0.968000000
H     7.422000000     0.268000000    -1.219000000
O    -0.016000000     6.779000000    -0.357000000
H     0.545000000     7.338000000    -0.894000000
H     0.498000000     5.982000000    -0.225000000
O     5.488000000     1.046000000     0.961000000
H     6.126000000     1.022000000     1.674000000
H     5.543000000     0.178000000     0.561000000
O     5.183000000    -1.588000000     0.269000000
H     4.319000000    -1.797000000    -0.087000000
H     5.508000000    -2.420000000     0.613000000
O    -3.706000000     0.493000000     3.910000000
H    -3.647000000     0.184000000     3.006000000
H    -2.807000000     0.449000000     4.236000000
