144
-2829.39283
O     2.257000000    -6.516000000     4.921000000
H     1.555000000    -6.119000000     4.406000000
H     2.122000000    -6.183000000     5.808000000
O    -2.249000000     2.528000000     3.565000000
H    -2.962000000     2.945000000     4.049000000
H    -1.846000000     3.241000000     3.070000000
O     0.803000000    -0.577000000    -5.951000000
H    -0.057000000    -0.584000000    -5.530000000
H     0.928000000    -1.476000000    -6.255000000
O    -0.419000000    -2.417000000     5.260000000
H     0.357000000    -2.016000000     5.650000000
H    -0.818000000    -1.717000000     4.744000000
O    -1.357000000     6.049000000    -4.723000000
H    -0.878000000     5.264000000    -4.455000000
H    -1.297000000     6.635000000    -3.969000000
O    -2.085000000     8.353000000    -2.579000000
H    -1.516000000     7.843000000    -2.002000000
H    -2.886000000     8.485000000    -2.071000000
O    -1.597000000    -4.825000000    -2.782000000
H    -1.835000000    -4.105000000    -2.197000000
H    -0.813000000    -5.205000000    -2.386000000
O    -3.105000000     1.493000000    -2.186000000
H    -3.840000000     1.573000000    -2.794000000
H    -3.099000000     2.322000000    -1.707000000
O    -3.558000000    -2.478000000     3.411000000
H    -2.916000000    -1.843000000     3.728000000
H    -4.353000000    -1.965000000     3.268000000
O     3.420000000    -0.403000000    -4.457000000
H     2.525000000    -0.125000000    -4.266000000
H     3.702000000     0.171000000    -5.169000000
O     0.862000000     1.523000000     2.392000000
H     1.605000000     1.234000000     1.863000000
H     0.110000000     1.062000000     2.022000000
O     1.678000000     6.732000000    -2.886000000
H     1.390000000     5.857000000    -2.628000000
H     1.750000000     7.214000000    -2.062000000
O    -4.880000000     3.942000000     2.938000000
H    -5.207000000     4.542000000     3.608000000
H    -5.653000000     3.715000000     2.421000000
O     2.183000000    -3.161000000    -2.375000000
H     1.871000000    -2.786000000    -3.199000000
H     1.724000000    -3.998000000    -2.304000000
O    -4.088000000    -5.082000000     3.836000000
H    -4.029000000    -4.135000000     3.961000000
H    -5.001000000    -5.236000000     3.595000000
O     2.552000000    -3.450000000     6.362000000
H     2.584000000    -2.645000000     6.879000000
H     2.494000000    -3.150000000     5.455000000
O    -2.991000000    -2.407000000    -1.645000000
H    -3.670000000    -2.131000000    -2.260000000
H    -3.457000000    -2.544000000    -0.820000000
O     4.020000000    -3.961000000     0.653000000
H     4.455000000    -3.412000000     0.002000000
H     3.712000000    -4.721000000     0.159000000
O     3.303000000     1.264000000     1.351000000
H     3.118000000     1.945000000     0.705000000
H     3.912000000     0.673000000     0.909000000
O    -1.520000000     5.918000000    -1.331000000
H    -1.021000000     5.178000000    -0.983000000
H    -2.357000000     5.537000000    -1.597000000
O     3.283000000     3.111000000    -0.951000000
H     2.442000000     3.519000000    -1.154000000
H     3.935000000     3.749000000    -1.240000000
O     1.376000000     4.842000000    -5.982000000
H     1.772000000     3.988000000    -6.158000000
H     1.111000000     4.798000000    -5.063000000
O    -0.285000000     6.035000000     3.280000000
H    -0.994000000     5.779000000     2.692000000
H    -0.262000000     6.991000000     3.226000000
O     0.113000000     8.225000000     1.060000000
H    -0.568000000     8.242000000     0.387000000
H     0.717000000     7.540000000     0.772000000
O     3.109000000    -3.848000000     3.149000000
H     2.585000000    -4.647000000     3.097000000
H     3.593000000    -3.824000000     2.324000000
O     4.968000000    -0.698000000     2.600000000
H     5.738000000    -0.911000000     2.073000000
H     4.830000000     0.238000000     2.454000000
O    -4.816000000     0.698000000     2.740000000
H    -4.664000000     0.320000000     1.874000000
H    -4.369000000     1.544000000     2.714000000
O    -4.558000000    -3.048000000     0.681000000
H    -4.438000000    -3.143000000     1.626000000
H    -4.781000000    -2.125000000     0.560000000
O     4.422000000     2.294000000    -4.488000000
H     3.998000000     3.086000000    -4.158000000
H     5.141000000     2.135000000    -3.876000000
O     3.920000000     5.134000000    -3.417000000
H     3.257000000     5.621000000    -3.907000000
H     4.534000000     5.803000000    -3.115000000
O    -1.645000000    -0.222000000     4.402000000
H    -1.847000000     0.631000000     4.019000000
H    -1.769000000    -0.098000000     5.343000000
O     5.385000000    -0.076000000    -0.919000000
H     5.085000000     0.665000000    -1.445000000
H     6.281000000     0.152000000    -0.672000000
O     4.742000000    -2.497000000    -1.982000000
H     4.842000000    -1.599000000    -1.668000000
H     3.816000000    -2.568000000    -2.213000000
O    -0.744000000    -1.633000000    -2.813000000
H    -0.186000000    -1.298000000    -2.111000000
H    -1.449000000    -2.094000000    -2.359000000
O     2.573000000    -0.843000000     3.713000000
H     3.489000000    -0.765000000     3.448000000
H     2.299000000    -1.699000000     3.382000000
O     1.677000000     5.684000000     0.249000000
H     1.133000000     4.966000000    -0.076000000
H     2.128000000     5.317000000     1.009000000
O    -3.888000000     4.732000000    -2.301000000
H    -4.287000000     5.586000000    -2.136000000
H    -4.220000000     4.475000000    -3.162000000
O     0.609000000    -5.229000000     3.274000000
H     0.182000000    -4.373000000     3.278000000
H    -0.060000000    -5.829000000     2.946000000
O     1.922000000     4.272000000     2.927000000
H     1.518000000     3.409000000     2.827000000
H     1.182000000     4.872000000     3.024000000
O    -0.039000000     3.436000000    -3.865000000
H    -0.365000000     2.565000000    -4.091000000
H     0.200000000     3.370000000    -2.940000000
O     1.941000000    -5.994000000     0.775000000
H     1.300000000    -5.756000000     1.445000000
H     2.545000000    -6.587000000     1.221000000
O    -1.401000000     0.837000000    -4.021000000
H    -2.038000000     1.176000000    -3.393000000
H    -1.369000000    -0.103000000    -3.847000000
O     5.705000000    -3.624000000     4.254000000
H     6.038000000    -2.810000000     3.876000000
H     4.775000000    -3.629000000     4.027000000
O    -4.343000000    -0.186000000     0.142000000
H    -3.485000000     0.013000000    -0.233000000
H    -4.951000000    -0.102000000    -0.592000000
O     0.379000000    -3.340000000    -5.282000000
H     0.293000000    -3.247000000    -4.333000000
H    -0.161000000    -4.100000000    -5.499000000
O    -2.043000000    -5.641000000     2.020000000
H    -2.477000000    -6.131000000     1.321000000
H    -2.723000000    -5.060000000     2.361000000
O    -2.355000000     5.099000000     1.610000000
H    -3.278000000     5.013000000     1.371000000
H    -1.894000000     4.526000000     0.998000000
O     1.170000000    -5.797000000    -1.926000000
H     1.210000000    -5.775000000    -0.970000000
H     1.479000000    -6.673000000    -2.158000000
