144
-2825.94018
O    -2.378000000     1.051000000     5.058000000
H    -2.433000000     0.854000000     5.993000000
H    -2.888000000     1.853000000     4.952000000
O    -1.498000000    -0.866000000    -4.647000000
H    -1.742000000    -0.456000000    -3.818000000
H    -2.157000000    -0.559000000    -5.269000000
O     1.912000000    -0.612000000     4.563000000
H     1.851000000    -1.499000000     4.918000000
H     2.357000000    -0.720000000     3.723000000
O    -0.799000000     7.004000000    -2.662000000
H    -1.124000000     6.702000000    -1.813000000
H    -1.256000000     7.832000000    -2.812000000
O     2.321000000     4.668000000    -5.392000000
H     1.993000000     5.381000000    -5.940000000
H     1.823000000     4.743000000    -4.578000000
O    -2.118000000    -5.168000000    -2.144000000
H    -2.295000000    -4.864000000    -1.254000000
H    -1.169000000    -5.288000000    -2.172000000
O    -3.683000000     3.612000000     0.030000000
H    -3.835000000     3.779000000    -0.900000000
H    -2.738000000     3.478000000     0.098000000
O    -3.706000000    -3.177000000     1.490000000
H    -3.418000000    -3.094000000     0.581000000
H    -4.176000000    -2.362000000     1.668000000
O    -1.526000000    -1.585000000     5.474000000
H    -0.725000000    -1.445000000     5.979000000
H    -1.893000000    -0.708000000     5.359000000
O     1.076000000    -1.494000000    -4.370000000
H     0.227000000    -1.186000000    -4.686000000
H     1.042000000    -1.363000000    -3.422000000
O     0.827000000     5.069000000    -3.369000000
H     0.392000000     5.864000000    -3.062000000
H     0.820000000     4.485000000    -2.610000000
O    -4.398000000     2.959000000     4.159000000
H    -4.694000000     2.947000000     5.069000000
H    -5.158000000     2.666000000     3.656000000
O     4.012000000    -3.661000000    -2.985000000
H     3.935000000    -3.060000000    -3.726000000
H     3.526000000    -4.440000000    -3.256000000
O    -4.830000000    -5.738000000     1.603000000
H    -4.169000000    -5.047000000     1.550000000
H    -5.656000000    -5.270000000     1.728000000
O    -2.298000000    -3.861000000     3.914000000
H    -1.994000000    -3.074000000     4.366000000
H    -2.708000000    -3.533000000     3.113000000
O     1.977000000    -5.481000000     4.221000000
H     2.361000000    -6.288000000     4.561000000
H     2.637000000    -5.137000000     3.619000000
O    -3.969000000    -1.727000000    -2.028000000
H    -4.166000000    -2.355000000    -2.723000000
H    -4.647000000    -1.878000000    -1.369000000
O     3.426000000    -4.627000000    -0.443000000
H     3.266000000    -5.499000000    -0.803000000
H     3.822000000    -4.138000000    -1.165000000
O     3.387000000     1.472000000     0.671000000
H     3.454000000     2.352000000     0.302000000
H     3.195000000     0.911000000    -0.081000000
O    -1.676000000     6.270000000    -0.263000000
H    -1.482000000     5.336000000    -0.337000000
H    -2.375000000     6.319000000     0.390000000
O     3.123000000     3.847000000    -1.099000000
H     2.186000000     3.653000000    -1.119000000
H     3.458000000     3.498000000    -1.925000000
O    -1.243000000     4.302000000     5.522000000
H    -2.122000000     4.641000000     5.690000000
H    -1.242000000     4.094000000     4.587000000
O     1.704000000    -2.976000000     5.881000000
H     1.377000000    -3.776000000     5.469000000
H     2.357000000    -3.280000000     6.511000000
O    -1.025000000     6.771000000     2.167000000
H    -0.987000000     6.735000000     1.212000000
H    -0.743000000     7.659000000     2.385000000
O     3.583000000    -3.980000000     2.407000000
H     3.528000000    -4.118000000     1.461000000
H     3.353000000    -3.059000000     2.528000000
O    -5.138000000    -0.920000000     1.949000000
H    -5.218000000    -0.051000000     1.556000000
H    -5.925000000    -1.015000000     2.484000000
O     3.796000000    -1.721000000    -4.923000000
H     4.078000000    -1.482000000    -5.806000000
H     2.840000000    -1.709000000    -4.965000000
O     4.177000000     0.637000000    -2.099000000
H     4.744000000     1.033000000    -1.436000000
H     4.232000000     1.232000000    -2.847000000
O     3.842000000     2.796000000    -3.891000000
H     3.453000000     3.437000000    -4.486000000
H     4.771000000     2.788000000    -4.122000000
O     0.244000000     1.522000000     5.243000000
H     0.748000000     0.802000000     4.863000000
H    -0.624000000     1.441000000     4.848000000
O    -2.376000000     0.520000000    -2.170000000
H    -1.968000000     0.380000000    -1.315000000
H    -2.997000000    -0.203000000    -2.260000000
O     3.458000000    -0.993000000     2.250000000
H     4.207000000    -0.404000000     2.342000000
H     3.171000000    -0.874000000     1.344000000
O     2.722000000     6.649000000     2.598000000
H     3.244000000     7.447000000     2.677000000
H     2.466000000     6.620000000     1.676000000
O     1.732000000     6.282000000     0.014000000
H     0.891000000     5.899000000     0.266000000
H     2.153000000     5.606000000    -0.517000000
O     1.091000000     8.724000000    -0.966000000
H     1.290000000     9.191000000    -0.155000000
H     1.341000000     7.817000000    -0.787000000
O    -3.939000000     7.353000000    -1.722000000
H    -4.890000000     7.375000000    -1.618000000
H    -3.732000000     6.426000000    -1.840000000
O     0.955000000    -8.049000000     2.800000000
H     0.311000000    -7.359000000     2.646000000
H     0.467000000    -8.736000000     3.254000000
O    -1.297000000     5.222000000    -5.340000000
H    -1.507000000     4.435000000    -4.836000000
H    -0.767000000     5.752000000    -4.745000000
O    -1.736000000     2.621000000    -3.974000000
H    -0.849000000     2.271000000    -4.062000000
H    -2.192000000     1.983000000    -3.427000000
O    -5.894000000     1.237000000     0.605000000
H    -5.263000000     1.948000000     0.715000000
H    -6.051000000     1.200000000    -0.339000000
O    -4.059000000     5.727000000     3.537000000
H    -4.376000000     4.826000000     3.608000000
H    -3.132000000     5.638000000     3.316000000
O    -0.558000000    -5.826000000     3.040000000
H     0.240000000    -5.640000000     3.534000000
H    -1.251000000    -5.384000000     3.530000000
O     1.638000000    -3.932000000    -5.135000000
H     1.005000000    -3.897000000    -5.853000000
H     1.580000000    -3.070000000    -4.723000000
O     1.049000000     2.027000000    -5.983000000
H     1.729000000     1.398000000    -5.742000000
H     1.435000000     2.882000000    -5.794000000
O    -1.457000000    -5.772000000     0.499000000
H    -1.187000000    -5.877000000     1.411000000
H    -1.260000000    -6.616000000     0.092000000
O    -1.252000000     4.056000000     2.821000000
H    -1.174000000     5.008000000     2.879000000
H    -1.012000000     3.851000000     1.918000000
O     0.347000000    -6.769000000    -2.756000000
H     1.128000000    -7.317000000    -2.837000000
H     0.180000000    -6.728000000    -1.814000000
O    -3.724000000     4.631000000    -2.764000000
H    -4.559000000     4.691000000    -3.229000000
H    -3.192000000     4.046000000    -3.304000000
