144
-2782.28165
O    -5.376000000     3.872000000    -4.520000000
H    -6.153000000     4.418000000    -4.634000000
H    -5.001000000     4.159000000    -3.688000000
O     0.571000000     1.955000000     6.177000000
H    -0.210000000     1.668000000     6.651000000
H     0.403000000     1.709000000     5.268000000
O    -1.340000000    -1.167000000    -4.359000000
H    -0.874000000    -0.381000000    -4.644000000
H    -0.815000000    -1.893000000    -4.696000000
O     3.981000000     0.000000000     4.303000000
H     3.329000000    -0.687000000     4.166000000
H     4.146000000     0.353000000     3.429000000
O    -3.372000000    -4.177000000    -1.186000000
H    -2.762000000    -3.467000000    -1.387000000
H    -2.826000000    -4.859000000    -0.796000000
O    -4.247000000     4.070000000     1.829000000
H    -3.507000000     4.623000000     2.080000000
H    -3.846000000     3.314000000     1.400000000
O    -3.547000000    -1.202000000    -0.610000000
H    -2.593000000    -1.275000000    -0.587000000
H    -3.751000000    -1.009000000    -1.525000000
O    -0.910000000    -0.145000000     4.575000000
H    -0.684000000    -0.008000000     3.655000000
H    -1.864000000    -0.067000000     4.601000000
O     0.874000000     1.908000000    -5.122000000
H    -0.008000000     1.547000000    -5.209000000
H     0.817000000     2.505000000    -4.376000000
O     0.660000000     2.235000000     3.248000000
H     1.592000000     2.077000000     3.096000000
H     0.319000000     2.495000000     2.392000000
O    -1.600000000    -5.056000000     5.279000000
H    -1.495000000    -4.447000000     4.548000000
H    -1.206000000    -4.605000000     6.025000000
O     3.010000000    -6.376000000     2.168000000
H     3.585000000    -7.041000000     2.547000000
H     3.556000000    -5.592000000     2.111000000
O     4.436000000    -3.880000000    -1.312000000
H     4.234000000    -3.103000000    -1.833000000
H     3.943000000    -4.585000000    -1.731000000
O    -3.754000000    -1.177000000     2.161000000
H    -3.581000000    -0.294000000     2.485000000
H    -3.817000000    -1.075000000     1.211000000
O     0.217000000    -5.967000000     1.930000000
H     0.497000000    -5.177000000     2.393000000
H     1.022000000    -6.470000000     1.807000000
O    -3.683000000    -0.270000000    -3.089000000
H    -2.937000000    -0.487000000    -3.649000000
H    -4.301000000     0.169000000    -3.673000000
O     3.127000000    -5.963000000    -2.758000000
H     2.259000000    -5.565000000    -2.683000000
H     3.337000000    -5.902000000    -3.690000000
O     1.200000000     4.051000000     0.442000000
H     0.921000000     4.963000000     0.369000000
H     0.803000000     3.618000000    -0.314000000
O    -2.688000000     5.882000000    -2.422000000
H    -1.751000000     5.966000000    -2.598000000
H    -2.741000000     5.712000000    -1.482000000
O     0.013000000     3.860000000    -3.175000000
H    -0.523000000     3.605000000    -2.424000000
H    -0.018000000     4.817000000    -3.177000000
O    -4.531000000    -1.801000000     4.562000000
H    -4.380000000    -0.948000000     4.971000000
H    -4.421000000    -1.641000000     3.625000000
O    -6.803000000     3.859000000     2.963000000
H    -7.181000000     4.633000000     2.545000000
H    -5.913000000     3.810000000     2.615000000
O    -5.795000000     1.430000000    -0.557000000
H    -4.897000000     1.163000000    -0.362000000
H    -6.224000000     0.627000000    -0.852000000
O     4.710000000    -4.174000000     1.654000000
H     4.451000000    -4.207000000     0.733000000
H     5.172000000    -3.340000000     1.743000000
O     6.564000000    -2.104000000     1.411000000
H     6.862000000    -1.820000000     0.546000000
H     5.761000000    -1.605000000     1.562000000
O    -6.346000000     0.631000000     1.941000000
H    -6.315000000     1.039000000     1.076000000
H    -5.676000000     1.090000000     2.447000000
O     3.253000000    -2.372000000    -3.473000000
H     3.365000000    -1.541000000    -3.934000000
H     2.368000000    -2.656000000    -3.704000000
O     4.446000000     0.552000000    -2.220000000
H     4.150000000     1.460000000    -2.155000000
H     4.026000000     0.219000000    -3.013000000
O     6.675000000    -0.641000000    -0.916000000
H     5.929000000    -0.257000000    -1.378000000
H     7.272000000     0.093000000    -0.773000000
O     0.887000000    -3.632000000    -3.974000000
H     0.772000000    -4.332000000    -3.331000000
H     0.418000000    -3.940000000    -4.750000000
O    -1.446000000    -2.420000000    -2.033000000
H    -0.613000000    -2.833000000    -2.262000000
H    -1.577000000    -1.756000000    -2.710000000
O     4.205000000     0.730000000     1.659000000
H     3.435000000     0.613000000     1.104000000
H     4.823000000     1.215000000     1.112000000
O     1.624000000    -1.679000000     4.168000000
H     0.970000000    -1.387000000     4.804000000
H     1.670000000    -2.627000000     4.291000000
O    -1.817000000     5.445000000     0.083000000
H    -2.052000000     4.592000000    -0.281000000
H    -1.802000000     5.305000000     1.030000000
O    -5.526000000     6.155000000    -2.176000000
H    -5.135000000     5.284000000    -2.101000000
H    -6.163000000     6.071000000    -2.885000000
O    -1.824000000    -5.997000000     0.067000000
H    -1.957000000    -6.937000000     0.184000000
H    -1.124000000    -5.775000000     0.681000000
O    -3.829000000     1.111000000     3.653000000
H    -4.272000000     0.956000000     4.488000000
H    -3.368000000     1.941000000     3.778000000
O    -3.017000000     6.322000000    -5.104000000
H    -3.281000000     6.134000000    -4.204000000
H    -3.626000000     7.000000000    -5.396000000
O    -2.007000000     1.944000000    -4.047000000
H    -2.929000000     1.717000000    -3.924000000
H    -1.817000000     2.563000000    -3.343000000
O    -7.372000000     4.410000000    -0.811000000
H    -7.204000000     4.882000000    -1.627000000
H    -6.564000000     4.508000000    -0.307000000
O     0.211000000     7.288000000    -0.946000000
H     0.986000000     6.729000000    -0.991000000
H    -0.488000000     6.706000000    -0.647000000
O    -1.531000000    -3.201000000     3.426000000
H    -0.967000000    -2.866000000     2.729000000
H    -2.404000000    -2.875000000     3.205000000
O     2.012000000    -4.219000000     4.954000000
H     1.385000000    -4.921000000     4.780000000
H     2.830000000    -4.674000000     5.155000000
O     2.994000000     0.053000000    -4.631000000
H     2.152000000     0.508000000    -4.648000000
H     3.132000000    -0.229000000    -5.536000000
O     6.593000000    -4.936000000    -0.568000000
H     6.658000000    -5.198000000     0.351000000
H     5.759000000    -4.470000000    -0.626000000
O    -1.879000000     4.911000000     2.798000000
H    -1.037000000     5.353000000     2.689000000
H    -1.849000000     4.554000000     3.685000000
O     0.057000000    -5.148000000    -2.009000000
H     0.283000000    -6.060000000    -2.194000000
H    -0.568000000    -5.198000000    -1.286000000
O    -4.452000000     3.653000000    -1.855000000
H    -3.525000000     3.425000000    -1.929000000
H    -4.781000000     3.094000000    -1.151000000
