144
-2795.54665
O    -0.264000000     2.007000000     4.787000000
H    -0.290000000     1.152000000     5.217000000
H     0.136000000     1.834000000     3.934000000
O    -3.455000000     0.270000000    -4.794000000
H    -4.196000000     0.332000000    -5.397000000
H    -2.693000000     0.152000000    -5.362000000
O     5.234000000    -0.520000000     3.366000000
H     5.379000000    -0.381000000     4.302000000
H     4.844000000    -1.392000000     3.311000000
O     3.409000000     4.585000000    -1.091000000
H     4.024000000     3.854000000    -1.027000000
H     3.141000000     4.593000000    -2.010000000
O    -5.004000000     5.341000000    -3.871000000
H    -4.510000000     4.523000000    -3.830000000
H    -4.611000000     5.822000000    -4.600000000
O    -8.054000000     3.333000000    -1.136000000
H    -8.062000000     3.562000000    -0.207000000
H    -7.220000000     2.881000000    -1.264000000
O     1.629000000     2.376000000    -6.199000000
H     0.963000000     2.710000000    -5.598000000
H     2.219000000     1.866000000    -5.643000000
O    -5.642000000    -1.161000000    -0.377000000
H    -4.915000000    -0.913000000    -0.948000000
H    -5.706000000    -2.112000000    -0.470000000
O    -4.609000000     3.212000000     4.486000000
H    -4.120000000     3.352000000     3.676000000
H    -5.226000000     3.943000000     4.524000000
O    -5.547000000     2.137000000    -1.582000000
H    -4.805000000     2.497000000    -2.068000000
H    -5.167000000     1.824000000    -0.761000000
O     1.857000000    -2.375000000     5.811000000
H     2.814000000    -2.345000000     5.807000000
H     1.637000000    -3.079000000     5.201000000
O     2.738000000    -5.294000000     3.957000000
H     3.576000000    -5.498000000     4.373000000
H     2.184000000    -6.050000000     4.151000000
O     5.170000000    -0.902000000    -2.133000000
H     5.035000000    -1.526000000    -2.846000000
H     5.831000000    -1.314000000    -1.576000000
O    -0.097000000    -0.609000000     5.713000000
H     0.728000000    -1.094000000     5.730000000
H    -0.771000000    -1.285000000     5.637000000
O    -2.754000000    -3.080000000    -2.103000000
H    -2.426000000    -3.583000000    -1.358000000
H    -2.894000000    -2.200000000    -1.754000000
O    -1.800000000    -4.487000000     0.188000000
H    -1.723000000    -5.412000000    -0.045000000
H    -1.343000000    -4.412000000     1.026000000
O     2.894000000    -5.064000000    -1.452000000
H     3.555000000    -4.697000000    -2.038000000
H     2.071000000    -4.972000000    -1.931000000
O    -5.353000000     0.707000000     4.449000000
H    -5.045000000     1.612000000     4.513000000
H    -5.279000000     0.494000000     3.519000000
O     3.127000000     3.946000000     1.587000000
H     2.839000000     4.319000000     0.754000000
H     2.617000000     3.141000000     1.678000000
O     0.732000000    -6.758000000    -0.530000000
H     0.793000000    -6.259000000    -1.345000000
H     1.366000000    -6.341000000     0.054000000
O     0.269000000    -5.180000000    -2.734000000
H     0.735000000    -5.062000000    -3.561000000
H    -0.595000000    -5.504000000    -2.989000000
O     1.130000000     2.243000000     1.705000000
H     0.699000000     1.461000000     1.359000000
H     0.736000000     2.968000000     1.220000000
O     2.898000000     3.532000000    -3.488000000
H     3.345000000     2.908000000    -2.916000000
H     3.359000000     3.463000000    -4.324000000
O    -3.294000000     7.007000000    -2.198000000
H    -2.916000000     6.904000000    -3.071000000
H    -2.867000000     6.332000000    -1.671000000
O    -0.016000000     4.412000000     0.643000000
H     0.409000000     5.242000000     0.859000000
H    -0.601000000     4.625000000    -0.084000000
O    -5.051000000     0.337000000     1.899000000
H    -4.513000000     0.760000000     1.229000000
H    -5.453000000    -0.406000000     1.448000000
O     0.655000000    -4.974000000     2.164000000
H     1.459000000    -4.953000000     2.684000000
H     0.057000000    -5.525000000     2.669000000
O     5.272000000    -4.335000000     0.492000000
H     4.547000000    -4.655000000    -0.045000000
H     5.686000000    -5.128000000     0.833000000
O    -6.956000000     2.212000000     2.093000000
H    -6.449000000     3.009000000     1.940000000
H    -6.300000000     1.546000000     2.298000000
O     6.266000000     2.865000000     0.812000000
H     7.150000000     2.504000000     0.747000000
H     5.689000000     2.114000000     0.671000000
O    -0.131000000    -0.149000000    -4.614000000
H     0.549000000    -0.462000000    -5.211000000
H    -0.377000000    -0.922000000    -4.105000000
O     5.013000000     0.399000000     0.635000000
H     4.802000000    -0.051000000     1.453000000
H     5.423000000    -0.274000000     0.091000000
O     2.942000000     0.604000000    -4.620000000
H     3.809000000     0.208000000    -4.707000000
H     2.343000000    -0.141000000    -4.567000000
O    -1.718000000     4.859000000    -1.289000000
H    -2.284000000     4.090000000    -1.228000000
H    -1.235000000     4.737000000    -2.106000000
O     4.487000000     1.922000000    -1.807000000
H     4.262000000     1.695000000    -0.905000000
H     4.427000000     1.095000000    -2.284000000
O    -0.540000000    -2.550000000    -3.616000000
H    -1.386000000    -2.595000000    -3.170000000
H     0.061000000    -3.023000000    -3.040000000
O    -3.432000000    -0.661000000    -2.049000000
H    -2.895000000     0.113000000    -1.880000000
H    -3.866000000    -0.474000000    -2.882000000
O     6.976000000    -2.163000000    -0.357000000
H     6.484000000    -2.896000000     0.015000000
H     7.696000000    -2.022000000     0.258000000
O    -7.821000000     0.209000000    -1.674000000
H    -6.998000000     0.021000000    -1.223000000
H    -7.664000000     1.039000000    -2.125000000
O    -3.287000000     5.862000000     2.045000000
H    -3.070000000     6.312000000     2.862000000
H    -2.796000000     5.041000000     2.086000000
O     4.437000000    -2.926000000     3.283000000
H     5.243000000    -3.422000000     3.139000000
H     3.739000000    -3.575000000     3.193000000
O    -3.744000000     3.010000000    -3.925000000
H    -3.501000000     2.154000000    -4.279000000
H    -3.275000000     3.066000000    -3.093000000
O     3.022000000     1.652000000     3.560000000
H     3.681000000     0.960000000     3.512000000
H     2.601000000     1.642000000     2.701000000
O     2.789000000    -3.205000000    -3.926000000
H     2.052000000    -2.609000000    -4.056000000
H     2.838000000    -3.707000000    -4.740000000
O    -0.787000000     2.563000000    -4.640000000
H    -1.460000000     2.711000000    -5.304000000
H    -0.621000000     1.621000000    -4.672000000
O     0.202000000     4.450000000    -3.197000000
H     1.134000000     4.268000000    -3.317000000
H    -0.241000000     3.693000000    -3.581000000
O    -2.703000000     3.068000000     2.757000000
H    -3.015000000     2.536000000     2.025000000
H    -2.084000000     2.502000000     3.218000000
O    -5.333000000     4.249000000     1.265000000
H    -4.778000000     4.004000000     0.525000000
H    -4.727000000     4.625000000     1.904000000
