144
-2804.13962
O    -4.322000000     4.165000000    -3.035000000
H    -4.041000000     3.561000000    -2.348000000
H    -3.656000000     4.853000000    -3.037000000
O    -4.493000000     0.203000000    -3.084000000
H    -4.805000000     0.338000000    -3.979000000
H    -5.061000000    -0.483000000    -2.733000000
O    -4.330000000     2.086000000    -0.969000000
H    -3.980000000     1.948000000    -0.088000000
H    -4.353000000     1.212000000    -1.357000000
O    -5.787000000     1.635000000     1.952000000
H    -6.326000000     1.314000000     1.229000000
H    -4.915000000     1.738000000     1.573000000
O    -0.690000000     6.501000000     1.169000000
H     0.161000000     6.075000000     1.277000000
H    -1.328000000     5.814000000     1.364000000
O    -6.812000000     1.806000000    -2.297000000
H    -7.120000000     1.543000000    -1.429000000
H    -5.875000000     1.964000000    -2.180000000
O    -1.531000000     1.248000000    -3.440000000
H    -2.374000000     0.967000000    -3.085000000
H    -1.740000000     2.011000000    -3.978000000
O     0.627000000    -4.536000000    -2.920000000
H     1.329000000    -5.107000000    -2.606000000
H     0.405000000    -4.883000000    -3.784000000
O     0.210000000     2.422000000    -1.747000000
H     0.369000000     1.783000000    -1.053000000
H    -0.429000000     1.998000000    -2.321000000
O    -4.675000000    -3.606000000    -2.419000000
H    -4.902000000    -3.531000000    -3.346000000
H    -3.797000000    -3.987000000    -2.418000000
O     1.194000000    -5.252000000     0.118000000
H     1.818000000    -5.413000000    -0.590000000
H     1.553000000    -4.499000000     0.586000000
O    -5.592000000     4.941000000     1.642000000
H    -5.633000000     5.833000000     1.986000000
H    -6.111000000     4.970000000     0.838000000
O     1.198000000     0.652000000     5.392000000
H     1.007000000    -0.161000000     5.861000000
H     0.431000000     1.204000000     5.548000000
O     3.478000000     3.598000000     3.458000000
H     3.786000000     3.149000000     4.246000000
H     2.582000000     3.861000000     3.667000000
O    -4.734000000    -0.351000000     6.127000000
H    -4.752000000     0.585000000     6.325000000
H    -3.833000000    -0.521000000     5.852000000
O     4.833000000     4.340000000     1.307000000
H     4.079000000     4.182000000     0.739000000
H     4.562000000     4.008000000     2.163000000
O     6.031000000     0.885000000    -4.031000000
H     6.472000000     0.077000000    -3.769000000
H     6.724000000     1.424000000    -4.411000000
O     1.857000000     5.200000000     1.166000000
H     1.945000000     4.937000000     2.082000000
H     2.225000000     4.468000000     0.670000000
O     2.806000000    -6.434000000    -1.820000000
H     2.045000000    -7.012000000    -1.879000000
H     3.382000000    -6.724000000    -2.528000000
O    -5.726000000     2.277000000     5.943000000
H    -6.637000000     2.251000000     5.651000000
H    -5.248000000     2.657000000     5.206000000
O    -7.335000000     3.124000000     3.941000000
H    -6.785000000     2.992000000     3.169000000
H    -7.658000000     4.021000000     3.855000000
O    -3.813000000    -1.806000000     1.257000000
H    -4.241000000    -1.448000000     2.035000000
H    -2.947000000    -2.075000000     1.563000000
O     3.564000000    -2.947000000    -4.637000000
H     3.858000000    -3.301000000    -3.798000000
H     4.040000000    -3.457000000    -5.292000000
O    -5.490000000    -1.768000000    -0.876000000
H    -5.296000000    -2.590000000    -1.327000000
H    -4.817000000    -1.700000000    -0.200000000
O     3.753000000    -2.992000000     3.980000000
H     2.930000000    -2.743000000     3.558000000
H     3.781000000    -3.945000000     3.905000000
O    -0.158000000     4.244000000     3.625000000
H    -0.230000000     4.044000000     4.559000000
H    -0.612000000     3.522000000     3.190000000
O    -2.456000000     2.214000000     5.659000000
H    -1.989000000     1.796000000     4.935000000
H    -3.279000000     2.513000000     5.271000000
O     0.539000000     0.318000000    -5.176000000
H    -0.036000000     0.484000000    -4.430000000
H     0.536000000    -0.634000000    -5.274000000
O     5.186000000    -0.623000000     3.196000000
H     4.898000000    -0.634000000     2.283000000
H     5.307000000    -1.546000000     3.420000000
O     3.160000000     3.307000000    -0.534000000
H     3.486000000     2.535000000    -0.997000000
H     2.756000000     3.842000000    -1.217000000
O    -2.066000000    -4.684000000    -2.387000000
H    -1.291000000    -4.153000000    -2.571000000
H    -1.929000000    -5.009000000    -1.497000000
O    -6.104000000    -0.610000000     3.448000000
H    -6.008000000     0.164000000     2.893000000
H    -5.552000000    -0.429000000     4.209000000
O    -3.513000000     6.266000000     4.124000000
H    -2.724000000     6.800000000     4.220000000
H    -3.245000000     5.545000000     3.554000000
O    -3.043000000     4.816000000     1.140000000
H    -3.925000000     4.563000000     1.412000000
H    -2.638000000     3.998000000     0.852000000
O     6.637000000     2.881000000    -0.093000000
H     6.039000000     2.408000000    -0.673000000
H     6.063000000     3.323000000     0.533000000
O    -4.040000000     3.060000000     3.720000000
H    -3.339000000     2.671000000     3.198000000
H    -4.506000000     3.631000000     3.109000000
O     0.050000000     3.119000000     6.177000000
H     0.068000000     3.921000000     6.700000000
H    -0.794000000     2.718000000     6.383000000
O     5.189000000    -4.091000000    -2.817000000
H     5.583000000    -4.037000000    -1.947000000
H     5.933000000    -4.077000000    -3.419000000
O     0.871000000    -2.249000000     3.899000000
H     0.843000000    -1.317000000     3.682000000
H     1.207000000    -2.277000000     4.795000000
O     4.886000000    -0.031000000     0.467000000
H     5.643000000    -0.547000000     0.188000000
H     4.505000000     0.294000000    -0.348000000
O     1.816000000     2.336000000    -6.442000000
H     1.542000000     1.662000000    -5.820000000
H     1.114000000     2.363000000    -7.092000000
O     3.832000000    -0.327000000    -5.495000000
H     4.122000000    -1.201000000    -5.232000000
H     4.278000000     0.265000000    -4.890000000
O    -1.288000000    -2.260000000     2.367000000
H    -0.477000000    -2.352000000     2.868000000
H    -1.002000000    -1.960000000     1.504000000
O     4.579000000     1.317000000    -1.824000000
H     5.298000000     1.190000000    -2.443000000
H     3.790000000     1.298000000    -2.366000000
O     2.444000000     2.273000000    -3.342000000
H     2.120000000     1.758000000    -4.080000000
H     1.667000000     2.439000000    -2.807000000
O     0.963000000    -2.402000000    -5.126000000
H     1.873000000    -2.489000000    -5.408000000
H     0.865000000    -3.053000000    -4.430000000
O    -2.381000000    -1.437000000     4.673000000
H    -1.734000000    -1.177000000     5.330000000
H    -1.866000000    -1.606000000     3.884000000
O     1.623000000     6.073000000     3.929000000
H     1.322000000     6.981000000     3.957000000
H     0.819000000     5.554000000     3.934000000
