144
-2817.20432
O     0.966000000     2.652000000    -5.616000000
H     0.298000000     2.552000000    -6.293000000
H     1.747000000     2.241000000    -5.987000000
O    -5.687000000     2.363000000     3.466000000
H    -5.751000000     1.896000000     2.633000000
H    -4.902000000     2.005000000     3.881000000
O    -3.151000000    -2.212000000    -2.576000000
H    -2.490000000    -1.523000000    -2.502000000
H    -2.911000000    -2.689000000    -3.370000000
O    -4.345000000     4.130000000     0.923000000
H    -3.847000000     3.330000000     1.093000000
H    -5.114000000     3.834000000     0.435000000
O    -5.683000000    -1.718000000     2.400000000
H    -5.112000000    -2.161000000     1.773000000
H    -5.663000000    -0.799000000     2.135000000
O    -2.584000000     3.556000000     5.903000000
H    -3.141000000     4.302000000     5.679000000
H    -2.678000000     3.465000000     6.852000000
O     2.866000000     2.057000000    -1.719000000
H     1.949000000     2.332000000    -1.739000000
H     3.063000000     1.946000000    -0.789000000
O     5.325000000     2.958000000    -2.244000000
H     5.284000000     3.145000000    -3.182000000
H     4.424000000     2.740000000    -2.004000000
O     2.204000000    -5.106000000    -3.166000000
H     2.233000000    -6.039000000    -3.381000000
H     2.002000000    -5.083000000    -2.231000000
O     1.206000000     4.578000000    -1.174000000
H     2.053000000     5.023000000    -1.207000000
H     0.867000000     4.774000000    -0.301000000
O     6.188000000    -3.074000000     0.048000000
H     5.869000000    -3.198000000    -0.846000000
H     6.167000000    -3.951000000     0.433000000
O    -2.000000000    -5.290000000    -3.009000000
H    -1.516000000    -6.051000000    -3.329000000
H    -2.211000000    -4.791000000    -3.798000000
O    -1.474000000    -2.874000000     1.186000000
H    -0.998000000    -2.044000000     1.167000000
H    -0.813000000    -3.524000000     1.424000000
O     3.449000000    -4.313000000     1.729000000
H     4.364000000    -4.592000000     1.724000000
H     3.451000000    -3.497000000     2.230000000
O    -0.747000000    -0.127000000     4.555000000
H    -1.014000000     0.064000000     5.454000000
H    -1.235000000     0.501000000     4.022000000
O    -1.575000000     2.238000000    -4.582000000
H    -1.667000000     1.315000000    -4.815000000
H    -0.642000000     2.421000000    -4.691000000
O    -1.391000000    -5.550000000    -0.430000000
H    -1.518000000    -5.373000000    -1.362000000
H    -1.681000000    -4.749000000     0.008000000
O    -5.380000000    -0.803000000     5.007000000
H    -4.536000000    -0.379000000     5.161000000
H    -5.274000000    -1.253000000     4.170000000
O    -3.568000000     1.461000000     4.500000000
H    -3.259000000     1.473000000     3.594000000
H    -3.015000000     2.099000000     4.951000000
O     4.581000000    -2.000000000    -3.556000000
H     5.511000000    -1.773000000    -3.527000000
H     4.549000000    -2.914000000    -3.276000000
O    -1.648000000    -3.260000000     4.494000000
H    -1.122000000    -2.488000000     4.285000000
H    -1.222000000    -3.975000000     4.021000000
O     4.841000000     0.630000000     5.290000000
H     4.418000000     1.485000000     5.214000000
H     5.278000000     0.503000000     4.449000000
O     0.476000000     4.721000000     1.374000000
H     1.063000000     5.026000000     2.066000000
H    -0.337000000     4.501000000     1.829000000
O     0.218000000     3.398000000     5.092000000
H    -0.106000000     3.039000000     4.266000000
H    -0.557000000     3.450000000     5.651000000
O    -3.909000000    -2.933000000     0.249000000
H    -3.046000000    -2.803000000     0.642000000
H    -3.803000000    -2.655000000    -0.661000000
O     3.612000000     0.513000000    -3.809000000
H     3.926000000    -0.365000000    -3.592000000
H     3.525000000     0.953000000    -2.963000000
O     0.266000000    -1.006000000    -6.238000000
H     0.853000000    -0.277000000    -6.039000000
H     0.649000000    -1.754000000    -5.780000000
O    -5.608000000    -0.753000000    -0.954000000
H    -5.343000000    -0.691000000    -1.872000000
H    -6.547000000    -0.568000000    -0.963000000
O     2.050000000    -5.251000000    -0.386000000
H     1.631000000    -5.963000000     0.098000000
H     2.500000000    -4.738000000     0.285000000
O    -5.359000000     1.043000000     1.137000000
H    -4.465000000     1.383000000     1.091000000
H    -5.502000000     0.629000000     0.286000000
O     2.724000000     2.618000000     5.935000000
H     2.615000000     1.700000000     6.184000000
H     1.895000000     2.854000000     5.519000000
O    -4.611000000     0.099000000    -3.206000000
H    -4.938000000     0.993000000    -3.310000000
H    -3.871000000     0.042000000    -3.811000000
O    -1.707000000     6.835000000     4.002000000
H    -1.814000000     6.027000000     3.500000000
H    -2.042000000     7.521000000     3.425000000
O    -2.838000000     4.134000000    -2.439000000
H    -1.908000000     4.361000000    -2.435000000
H    -2.921000000     3.475000000    -3.127000000
O    -2.154000000     4.719000000     2.374000000
H    -2.980000000     4.522000000     1.933000000
H    -1.932000000     3.912000000     2.839000000
O     4.793000000    -4.285000000    -2.064000000
H     4.054000000    -4.443000000    -1.477000000
H     5.100000000    -5.160000000    -2.304000000
O     1.268000000    -1.975000000     4.777000000
H     0.821000000    -1.147000000     4.600000000
H     1.189000000    -2.093000000     5.723000000
O    -4.306000000     7.116000000     0.851000000
H    -3.401000000     7.068000000     1.158000000
H    -4.601000000     6.205000000     0.830000000
O     5.613000000    -1.054000000     2.120000000
H     5.912000000    -1.720000000     1.501000000
H     5.873000000    -0.223000000     1.724000000
O     2.904000000     0.731000000    -6.453000000
H     3.642000000     0.651000000    -7.057000000
H     3.279000000     0.549000000    -5.591000000
O     5.929000000     1.123000000     0.032000000
H     5.842000000     1.333000000    -0.898000000
H     5.145000000     1.495000000     0.436000000
O     3.614000000     1.678000000     1.115000000
H     3.001000000     1.042000000     1.484000000
H     3.199000000     2.527000000     1.266000000
O     3.916000000    -2.308000000     3.926000000
H     3.121000000    -1.836000000     4.175000000
H     4.366000000    -1.715000000     3.324000000
O    -1.726000000     5.853000000    -0.621000000
H    -1.359000000     5.466000000     0.173000000
H    -2.406000000     5.238000000    -0.895000000
O     1.775000000    -3.227000000    -5.091000000
H     2.582000000    -2.733000000    -4.948000000
H     1.772000000    -3.887000000    -4.398000000
O    -2.111000000    -0.675000000    -4.892000000
H    -1.203000000    -0.643000000    -5.192000000
H    -2.578000000    -1.130000000    -5.593000000
O    -5.578000000     4.735000000    -2.761000000
H    -5.597000000     5.690000000    -2.687000000
H    -4.664000000     4.501000000    -2.603000000
O     0.643000000    -4.178000000     2.588000000
H     1.142000000    -3.367000000     2.683000000
H     1.296000000    -4.834000000     2.347000000
