144
-2797.20901
O     5.450000000    -2.172000000     4.359000000
H     5.324000000    -1.844000000     3.469000000
H     6.117000000    -2.852000000     4.272000000
O    -5.446000000     3.275000000     2.735000000
H    -5.006000000     2.863000000     1.991000000
H    -4.913000000     3.035000000     3.492000000
O    -2.908000000    -2.136000000    -2.895000000
H    -3.430000000    -2.803000000    -3.343000000
H    -3.040000000    -1.342000000    -3.412000000
O    -2.283000000    -5.523000000    -0.377000000
H    -2.871000000    -5.984000000    -0.976000000
H    -2.023000000    -4.736000000    -0.856000000
O    -3.552000000     3.484000000    -0.756000000
H    -3.140000000     2.902000000    -0.117000000
H    -3.997000000     2.894000000    -1.365000000
O    -7.091000000     3.694000000    -0.672000000
H    -7.549000000     4.512000000    -0.477000000
H    -6.179000000     3.868000000    -0.438000000
O    -2.006000000     3.163000000     6.771000000
H    -2.282000000     4.043000000     7.028000000
H    -1.658000000     2.778000000     7.576000000
O     4.691000000     0.320000000    -4.103000000
H     4.427000000     1.240000000    -4.076000000
H     5.639000000     0.340000000    -3.968000000
O    -0.246000000     0.517000000     6.831000000
H     0.158000000     1.308000000     7.187000000
H     0.061000000    -0.187000000     7.403000000
O     3.590000000    -6.029000000    -3.530000000
H     3.356000000    -6.381000000    -4.389000000
H     2.755000000    -5.760000000    -3.146000000
O    -6.753000000    -0.667000000     4.470000000
H    -6.386000000    -0.206000000     3.715000000
H    -6.493000000    -1.579000000     4.343000000
O     1.740000000     0.711000000    -6.468000000
H     2.350000000     0.393000000    -7.133000000
H     1.526000000    -0.064000000    -5.949000000
O     7.385000000    -1.933000000    -0.663000000
H     6.816000000    -2.683000000    -0.832000000
H     8.249000000    -2.317000000    -0.512000000
O    -0.649000000    -3.449000000    -3.636000000
H    -1.301000000    -2.851000000    -3.273000000
H    -0.348000000    -3.018000000    -4.436000000
O    -0.862000000    -2.849000000     0.899000000
H    -0.816000000    -1.910000000     0.720000000
H    -0.201000000    -3.235000000     0.324000000
O     3.321000000    -3.000000000     1.348000000
H     4.108000000    -2.457000000     1.296000000
H     2.792000000    -2.590000000     2.032000000
O    -0.510000000    -0.593000000     4.169000000
H    -0.254000000    -0.258000000     5.029000000
H    -0.922000000     0.153000000     3.734000000
O    -0.572000000     2.579000000    -4.332000000
H    -0.485000000     2.725000000    -3.390000000
H    -1.387000000     2.086000000    -4.423000000
O     0.817000000    -5.288000000    -2.673000000
H     0.448000000    -4.440000000    -2.918000000
H     1.279000000    -5.121000000    -1.852000000
O     1.460000000     4.902000000     3.286000000
H     0.976000000     4.281000000     3.831000000
H     0.783000000     5.438000000     2.874000000
O    -3.697000000     0.470000000     4.621000000
H    -2.957000000     0.836000000     4.137000000
H    -4.391000000     0.380000000     3.968000000
O    -2.774000000     3.907000000     3.914000000
H    -2.276000000     3.221000000     3.469000000
H    -2.366000000     3.977000000     4.777000000
O    -1.596000000    -3.086000000     3.701000000
H    -1.117000000    -2.311000000     3.994000000
H    -1.433000000    -3.126000000     2.759000000
O     0.218000000     3.223000000    -1.419000000
H     0.498000000     3.264000000    -0.505000000
H     0.410000000     2.324000000    -1.689000000
O     0.353000000     2.860000000     4.577000000
H    -0.307000000     2.309000000     4.156000000
H     0.148000000     2.810000000     5.510000000
O    -4.308000000    -2.510000000    -0.479000000
H    -3.609000000    -2.126000000    -1.009000000
H    -4.895000000    -1.778000000    -0.289000000
O     3.154000000    -1.723000000    -5.144000000
H     3.901000000    -2.306000000    -5.276000000
H     3.543000000    -0.899000000    -4.851000000
O     0.800000000    -2.647000000    -6.044000000
H     1.731000000    -2.452000000    -5.941000000
H     0.771000000    -3.327000000    -6.717000000
O     2.598000000     0.041000000     5.732000000
H     2.177000000     0.012000000     6.591000000
H     2.362000000    -0.792000000     5.322000000
O     2.938000000     3.193000000     1.529000000
H     2.939000000     3.814000000     0.801000000
H     2.574000000     3.687000000     2.264000000
O    -3.222000000     0.132000000     7.256000000
H    -2.266000000     0.152000000     7.307000000
H    -3.413000000     0.185000000     6.319000000
O    -4.869000000     0.738000000    -2.237000000
H    -4.088000000     0.906000000    -2.764000000
H    -5.517000000     0.415000000    -2.864000000
O    -5.354000000     0.230000000     2.280000000
H    -4.557000000     0.706000000     2.049000000
H    -5.822000000     0.130000000     1.451000000
O     3.445000000     2.565000000     4.918000000
H     3.191000000     1.648000000     5.020000000
H     2.781000000     2.936000000     4.337000000
O    -2.913000000     0.936000000    -4.643000000
H    -3.619000000     1.244000000    -5.210000000
H    -2.462000000     0.270000000    -5.162000000
O     5.350000000     1.436000000     1.989000000
H     6.202000000     1.661000000     1.614000000
H     4.966000000     2.278000000     2.232000000
O    -0.401000000     6.409000000     1.964000000
H    -1.286000000     6.045000000     1.918000000
H    -0.512000000     7.334000000     1.744000000
O    -1.254000000     5.361000000    -1.533000000
H    -0.592000000     4.669000000    -1.529000000
H    -2.070000000     4.913000000    -1.313000000
O    -2.884000000     5.235000000     1.563000000
H    -3.115000000     4.565000000     0.920000000
H    -2.991000000     4.802000000     2.410000000
O     5.538000000    -4.098000000    -3.792000000
H     4.624000000    -4.337000000    -3.641000000
H     5.959000000    -4.207000000    -2.939000000
O     1.767000000    -2.024000000     3.412000000
H     1.147000000    -1.295000000     3.426000000
H     1.431000000    -2.636000000     4.067000000
O     6.488000000     0.781000000    -0.963000000
H     6.570000000    -0.164000000    -1.094000000
H     5.593000000     0.983000000    -1.237000000
O    -6.188000000    -0.412000000    -0.297000000
H    -7.018000000     0.062000000    -0.241000000
H    -5.618000000     0.163000000    -0.808000000
O     3.766000000     1.825000000    -0.690000000
H     2.922000000     1.998000000    -1.108000000
H     3.642000000     2.092000000     0.221000000
O     3.910000000    -5.277000000     2.883000000
H     3.773000000    -4.456000000     2.411000000
H     3.856000000    -5.034000000     3.807000000
O     5.320000000    -1.351000000     1.735000000
H     5.211000000    -0.424000000     1.949000000
H     5.836000000    -1.351000000     0.929000000
O    -1.544000000    -1.071000000    -6.001000000
H    -0.672000000    -1.455000000    -6.092000000
H    -1.773000000    -0.782000000    -6.884000000
O     1.771000000    -5.104000000    -0.099000000
H     2.384000000    -4.447000000     0.231000000
H     1.321000000    -5.425000000     0.683000000
