144
-2834.45446
O    -2.181000000     2.064000000    -5.850000000
H    -1.333000000     1.727000000    -5.561000000
H    -2.724000000     2.056000000    -5.062000000
O     7.015000000    -3.253000000     0.524000000
H     6.386000000    -2.636000000     0.898000000
H     7.749000000    -2.705000000     0.244000000
O    -6.343000000     3.231000000     1.978000000
H    -6.274000000     2.552000000     1.307000000
H    -5.506000000     3.195000000     2.442000000
O    -3.889000000     3.344000000    -1.223000000
H    -3.767000000     2.535000000    -0.727000000
H    -4.573000000     3.135000000    -1.859000000
O    -3.448000000     2.971000000     6.130000000
H    -3.459000000     3.421000000     6.975000000
H    -2.520000000     2.824000000     5.949000000
O     5.159000000    -1.270000000    -3.676000000
H     5.973000000    -0.862000000    -3.971000000
H     5.403000000    -2.175000000    -3.481000000
O     6.494000000    -0.111000000     1.748000000
H     5.757000000    -0.216000000     2.350000000
H     6.097000000    -0.138000000     0.877000000
O    -0.899000000     0.424000000     6.389000000
H    -0.712000000     0.954000000     7.164000000
H    -0.417000000    -0.391000000     6.534000000
O     3.987000000    -4.426000000    -5.127000000
H     4.320000000    -5.135000000    -4.577000000
H     3.178000000    -4.773000000    -5.503000000
O     3.355000000     2.958000000    -4.328000000
H     3.896000000     3.742000000    -4.422000000
H     3.530000000     2.450000000    -5.121000000
O    -7.013000000    -0.621000000     2.665000000
H    -6.779000000    -0.038000000     1.943000000
H    -6.921000000    -1.502000000     2.302000000
O     6.436000000    -3.545000000    -2.665000000
H     7.213000000    -3.970000000    -3.029000000
H     6.242000000    -4.041000000    -1.869000000
O    -0.181000000    -4.403000000    -2.954000000
H     0.122000000    -4.242000000    -2.060000000
H     0.447000000    -3.939000000    -3.507000000
O     2.694000000    -5.574000000     1.578000000
H     3.468000000    -5.901000000     2.036000000
H     2.800000000    -4.623000000     1.577000000
O    -1.540000000    -1.724000000     3.675000000
H    -2.416000000    -1.399000000     3.884000000
H    -1.510000000    -1.731000000     2.718000000
O     0.110000000     0.783000000    -4.540000000
H     0.821000000     1.340000000    -4.223000000
H     0.551000000     0.076000000    -5.010000000
O     0.281000000    -3.563000000     2.025000000
H     0.545000000    -4.143000000     2.740000000
H     0.578000000    -2.695000000     2.298000000
O    -0.105000000     4.951000000     3.405000000
H    -0.499000000     4.153000000     3.759000000
H    -0.475000000     5.031000000     2.526000000
O    -4.170000000    -0.383000000     3.426000000
H    -3.702000000     0.376000000     3.077000000
H    -5.095000000    -0.178000000     3.289000000
O     2.918000000     4.084000000    -1.556000000
H     3.717000000     4.048000000    -1.030000000
H     3.053000000     3.431000000    -2.242000000
O    -4.184000000     3.247000000     3.437000000
H    -3.553000000     2.557000000     3.236000000
H    -4.149000000     3.333000000     4.390000000
O    -2.419000000    -2.782000000    -4.102000000
H    -3.150000000    -2.659000000    -3.497000000
H    -1.718000000    -3.143000000    -3.560000000
O    -1.939000000    -2.640000000     0.587000000
H    -1.350000000    -3.116000000     1.172000000
H    -1.387000000    -2.381000000    -0.151000000
O     0.434000000     2.377000000    -2.023000000
H     1.059000000     2.976000000    -1.616000000
H     0.262000000     1.717000000    -1.352000000
O    -0.753000000     2.176000000     4.257000000
H    -1.525000000     1.989000000     3.723000000
H    -0.591000000     1.363000000     4.737000000
O    -4.605000000    -2.627000000    -0.413000000
H    -3.806000000    -2.597000000     0.113000000
H    -4.546000000    -1.859000000    -0.982000000
O     3.306000000    -1.576000000    -5.596000000
H     3.776000000    -1.509000000    -4.764000000
H     3.529000000    -2.446000000    -5.927000000
O     0.856000000    -2.862000000    -4.804000000
H     1.474000000    -2.209000000    -5.130000000
H     0.178000000    -2.907000000    -5.478000000
O     1.992000000     1.312000000     4.049000000
H     1.166000000     1.747000000     4.261000000
H     1.824000000     0.385000000     4.216000000
O     3.882000000     1.703000000     1.042000000
H     3.850000000     1.306000000     0.172000000
H     4.286000000     2.559000000     0.900000000
O    -3.568000000    -0.536000000     6.317000000
H    -2.693000000    -0.356000000     5.973000000
H    -4.161000000    -0.124000000     5.689000000
O    -5.580000000     2.413000000    -2.884000000
H    -6.399000000     1.924000000    -2.971000000
H    -5.107000000     2.235000000    -3.696000000
O    -5.988000000     0.477000000     0.621000000
H    -5.165000000     0.965000000     0.597000000
H    -5.984000000    -0.040000000    -0.184000000
O     2.769000000     3.817000000     4.571000000
H     2.449000000     3.124000000     3.994000000
H     2.194000000     3.777000000     5.335000000
O    -2.636000000     0.098000000    -3.892000000
H    -1.683000000     0.165000000    -3.947000000
H    -2.858000000    -0.630000000    -4.472000000
O     4.190000000    -0.273000000     3.084000000
H     3.650000000     0.010000000     3.822000000
H     4.050000000     0.396000000     2.414000000
O    -0.908000000     5.987000000     0.839000000
H    -1.817000000     5.693000000     0.784000000
H    -0.966000000     6.888000000     1.158000000
O    -5.654000000    -2.988000000     2.627000000
H    -5.036000000    -3.713000000     2.531000000
H    -5.101000000    -2.210000000     2.699000000
O    -1.975000000     3.993000000    -3.190000000
H    -1.222000000     3.458000000    -2.938000000
H    -2.586000000     3.908000000    -2.459000000
O    -3.648000000     4.927000000     1.066000000
H    -3.847000000     4.406000000     0.288000000
H    -3.943000000     4.387000000     1.799000000
O     2.590000000     0.877000000    -6.524000000
H     3.427000000     1.110000000    -6.926000000
H     2.650000000    -0.066000000    -6.375000000
O     1.190000000    -1.248000000     3.838000000
H     0.270000000    -1.061000000     3.653000000
H     1.169000000    -2.022000000     4.401000000
O     6.081000000    -0.798000000    -0.800000000
H     6.496000000    -1.502000000    -1.297000000
H     5.810000000    -0.163000000    -1.463000000
O    -4.890000000    -0.567000000    -2.121000000
H    -5.673000000    -0.730000000    -2.646000000
H    -4.385000000     0.064000000    -2.633000000
O     4.316000000     1.021000000    -2.432000000
H     4.389000000     0.152000000    -2.826000000
H     3.800000000     1.526000000    -3.061000000
O    -1.649000000    -2.887000000    -6.557000000
H    -1.905000000    -3.776000000    -6.803000000
H    -2.102000000    -2.727000000    -5.729000000
O     3.605000000    -3.261000000     2.851000000
H     3.938000000    -3.521000000     3.710000000
H     3.676000000    -2.307000000     2.844000000
O     0.922000000    -4.527000000    -0.578000000
H     1.831000000    -4.348000000    -0.338000000
H     0.463000000    -4.603000000     0.259000000
