144
-2812.30590
O     0.058000000    -0.846000000    -5.511000000
H    -0.540000000    -1.593000000    -5.547000000
H     0.911000000    -1.211000000    -5.748000000
O    -6.477000000     1.237000000    -2.444000000
H    -6.383000000     0.351000000    -2.793000000
H    -5.579000000     1.536000000    -2.304000000
O    -6.257000000    -1.490000000    -2.996000000
H    -6.135000000    -2.212000000    -2.380000000
H    -5.396000000    -1.368000000    -3.396000000
O    -3.766000000    -1.137000000     5.844000000
H    -3.790000000    -2.094000000     5.859000000
H    -3.228000000    -0.899000000     6.598000000
O     4.860000000    -1.804000000     2.497000000
H     5.231000000    -1.474000000     1.678000000
H     5.621000000    -1.995000000     3.045000000
O    -3.012000000     3.306000000    -2.890000000
H    -2.978000000     2.403000000    -3.205000000
H    -3.515000000     3.257000000    -2.078000000
O    -2.736000000     0.795000000    -3.729000000
H    -2.154000000     0.146000000    -3.333000000
H    -3.351000000     0.279000000    -4.250000000
O    -2.399000000    -1.946000000    -3.026000000
H    -2.668000000    -2.859000000    -3.132000000
H    -1.641000000    -1.985000000    -2.443000000
O    -0.878000000    -2.798000000     6.071000000
H    -1.167000000    -2.439000000     5.232000000
H    -1.111000000    -2.128000000     6.713000000
O     0.934000000     3.120000000     0.513000000
H     0.484000000     2.305000000     0.288000000
H     0.237000000     3.774000000     0.556000000
O    -0.683000000     3.547000000    -4.017000000
H    -1.560000000     3.751000000    -3.695000000
H    -0.833000000     3.025000000    -4.805000000
O    -0.701000000     4.548000000    -1.380000000
H    -0.969000000     4.062000000    -2.161000000
H    -1.499000000     4.985000000    -1.084000000
O    -2.952000000    -4.998000000    -0.183000000
H    -3.385000000    -4.277000000     0.274000000
H    -2.028000000    -4.746000000    -0.208000000
O     3.946000000    -2.034000000    -3.427000000
H     3.747000000    -2.045000000    -4.364000000
H     4.387000000    -1.197000000    -3.286000000
O     5.274000000     3.564000000    -0.680000000
H     5.548000000     2.848000000    -1.252000000
H     5.043000000     4.274000000    -1.279000000
O     3.294000000     0.391000000     3.779000000
H     3.990000000    -0.193000000     3.479000000
H     3.717000000     1.246000000     3.860000000
O    -0.871000000     3.316000000     3.031000000
H    -0.172000000     2.662000000     3.028000000
H    -1.428000000     3.068000000     3.768000000
O    -6.442000000    -0.627000000     0.698000000
H    -5.673000000    -0.162000000     0.370000000
H    -6.450000000    -1.451000000     0.213000000
O     6.501000000     3.004000000     1.488000000
H     6.081000000     3.355000000     0.703000000
H     5.782000000     2.875000000     2.107000000
O    -3.579000000    -3.691000000     4.489000000
H    -3.261000000    -4.522000000     4.135000000
H    -3.690000000    -3.856000000     5.425000000
O    -6.199000000    -3.378000000    -0.996000000
H    -6.293000000    -4.314000000    -1.177000000
H    -5.613000000    -3.338000000    -0.241000000
O     0.458000000    -1.999000000    -2.182000000
H     0.683000000    -1.488000000    -2.959000000
H     0.061000000    -1.365000000    -1.585000000
O    -4.970000000     1.327000000     2.545000000
H    -4.096000000     0.955000000     2.422000000
H    -5.538000000     0.792000000     1.990000000
O    -7.602000000     2.182000000    -0.056000000
H    -7.000000000     1.921000000    -0.753000000
H    -8.158000000     1.414000000     0.080000000
O    -4.817000000     3.967000000     1.732000000
H    -5.028000000     3.062000000     1.962000000
H    -5.526000000     4.483000000     2.115000000
O     5.119000000    -3.371000000    -1.234000000
H     6.074000000    -3.314000000    -1.253000000
H     4.844000000    -3.078000000    -2.103000000
O     1.515000000     1.327000000    -4.614000000
H     0.891000000     1.993000000    -4.327000000
H     0.977000000     0.667000000    -5.051000000
O    -2.010000000     0.056000000     3.971000000
H    -2.584000000    -0.206000000     3.250000000
H    -2.462000000    -0.246000000     4.759000000
O    -6.026000000    -3.121000000     3.331000000
H    -5.296000000    -3.379000000     3.893000000
H    -6.791000000    -3.142000000     3.906000000
O     4.122000000    -4.773000000     4.009000000
H     3.911000000    -4.747000000     3.076000000
H     3.564000000    -5.466000000     4.362000000
O     4.239000000     1.146000000    -4.449000000
H     4.473000000     1.270000000    -5.369000000
H     3.284000000     1.078000000    -4.452000000
O    -4.543000000    -2.937000000     1.144000000
H    -5.154000000    -3.042000000     1.874000000
H    -4.008000000    -2.181000000     1.387000000
O     4.298000000     4.963000000    -3.266000000
H     3.392000000     4.829000000    -2.987000000
H     4.348000000     4.543000000    -4.125000000
O    -0.241000000    -4.648000000     0.739000000
H     0.526000000    -4.307000000     0.281000000
H     0.074000000    -4.845000000     1.621000000
O     6.156000000     2.075000000    -2.902000000
H     6.581000000     1.244000000    -2.690000000
H     5.367000000     1.824000000    -3.382000000
O     2.372000000    -3.361000000    -0.066000000
H     2.004000000    -2.740000000    -0.694000000
H     3.320000000    -3.266000000    -0.162000000
O     1.861000000     4.801000000    -1.582000000
H     1.885000000     3.873000000    -1.349000000
H     0.964000000     5.073000000    -1.390000000
O     0.692000000     1.241000000     3.770000000
H     0.019000000     0.615000000     3.500000000
H     1.519000000     0.809000000     3.557000000
O     3.295000000     4.676000000     1.353000000
H     3.680000000     4.623000000     0.479000000
H     2.553000000     4.072000000     1.325000000
O    -3.035000000     2.445000000     4.524000000
H    -3.944000000     2.219000000     4.720000000
H    -2.538000000     1.659000000     4.749000000
O    -6.981000000     4.636000000    -0.700000000
H    -6.981000000     3.800000000    -0.233000000
H    -7.905000000     4.817000000    -0.868000000
O     6.272000000    -0.615000000     0.336000000
H     6.037000000     0.312000000     0.328000000
H     6.722000000    -0.755000000    -0.498000000
O    -4.607000000     2.702000000    -0.747000000
H    -4.372000000     1.879000000    -0.318000000
H    -4.992000000     3.233000000    -0.050000000
O     0.986000000     6.261000000    -4.346000000
H     0.834000000     5.360000000    -4.061000000
H     0.565000000     6.799000000    -3.674000000
O     3.581000000    -1.907000000     5.387000000
H     3.131000000    -1.248000000     4.859000000
H     3.802000000    -2.601000000     4.765000000
O     1.222000000    -4.638000000    -2.239000000
H     1.963000000    -4.745000000    -2.835000000
H     1.030000000    -3.700000000    -2.262000000
O    -7.271000000     0.001000000     3.348000000
H    -6.383000000    -0.150000000     3.672000000
H    -7.244000000    -0.283000000     2.435000000
O     4.782000000    -5.194000000     0.728000000
H     5.469000000    -4.906000000     1.329000000
H     4.688000000    -4.472000000     0.107000000
