144
-2824.89990
O     5.491000000     0.336000000     0.523000000
H     5.080000000     1.132000000     0.187000000
H     5.881000000     0.600000000     1.356000000
O    -2.326000000     1.249000000     3.690000000
H    -2.509000000     0.316000000     3.579000000
H    -1.404000000     1.342000000     3.452000000
O     0.033000000    -5.601000000    -1.331000000
H     0.916000000    -5.930000000    -1.164000000
H    -0.151000000    -5.858000000    -2.235000000
O     4.463000000     5.054000000     4.192000000
H     3.975000000     4.428000000     4.726000000
H     3.842000000     5.329000000     3.518000000
O    -6.404000000    -5.180000000    -0.281000000
H    -5.680000000    -4.613000000    -0.014000000
H    -7.095000000    -5.000000000     0.357000000
O     6.109000000    -0.528000000    -1.782000000
H     5.580000000    -1.324000000    -1.737000000
H     6.010000000    -0.126000000    -0.919000000
O     1.246000000    -5.938000000     1.500000000
H     2.096000000    -6.038000000     1.930000000
H     1.362000000    -5.191000000     0.912000000
O     3.044000000     4.446000000    -1.934000000
H     3.130000000     5.033000000    -1.183000000
H     2.337000000     4.826000000    -2.455000000
O     3.884000000    -2.681000000    -2.574000000
H     3.774000000    -3.431000000    -3.159000000
H     3.713000000    -1.919000000    -3.127000000
O     3.783000000     0.155000000     3.818000000
H     3.344000000    -0.431000000     3.202000000
H     4.713000000    -0.054000000     3.726000000
O    -4.879000000     4.248000000    -1.106000000
H    -5.518000000     3.576000000    -0.870000000
H    -5.194000000     4.595000000    -1.941000000
O    -0.919000000    -3.623000000     4.242000000
H    -1.089000000    -4.119000000     3.441000000
H    -0.503000000    -2.815000000     3.939000000
O     3.024000000    -2.133000000     2.242000000
H     2.163000000    -2.318000000     2.618000000
H     2.900000000    -2.237000000     1.299000000
O    -2.585000000    -7.908000000     0.521000000
H    -1.629000000    -7.950000000     0.549000000
H    -2.777000000    -7.032000000     0.187000000
O    -6.726000000    -1.990000000    -4.266000000
H    -6.266000000    -1.563000000    -4.988000000
H    -6.071000000    -2.059000000    -3.572000000
O    -1.605000000    -3.753000000     1.641000000
H    -2.157000000    -3.483000000     0.906000000
H    -0.841000000    -4.157000000     1.231000000
O    -3.102000000     0.343000000    -4.862000000
H    -2.202000000     0.098000000    -4.646000000
H    -3.502000000     0.555000000    -4.018000000
O    -2.232000000     5.201000000     3.744000000
H    -2.749000000     4.515000000     3.321000000
H    -2.867000000     5.887000000     3.949000000
O    -3.650000000     4.821000000     1.458000000
H    -4.161000000     4.030000000     1.631000000
H    -3.746000000     4.967000000     0.517000000
O     0.875000000     2.520000000    -4.928000000
H     0.602000000     1.905000000    -4.247000000
H     1.529000000     2.039000000    -5.435000000
O    -1.386000000    -1.319000000    -3.621000000
H    -1.206000000    -2.256000000    -3.695000000
H    -2.166000000    -1.267000000    -3.069000000
O    -1.755000000    -4.028000000    -4.277000000
H    -1.706000000    -4.833000000    -3.762000000
H    -2.278000000    -4.265000000    -5.043000000
O    -6.501000000    -2.095000000     3.738000000
H    -6.312000000    -1.158000000     3.686000000
H    -5.649000000    -2.517000000     3.626000000
O     6.786000000     1.186000000     2.916000000
H     7.018000000     2.011000000     3.342000000
H     7.621000000     0.732000000     2.802000000
O    -2.025000000     4.493000000    -2.384000000
H    -2.269000000     3.843000000    -1.725000000
H    -2.509000000     4.231000000    -3.168000000
O     4.020000000     2.841000000    -3.935000000
H     3.489000000     3.194000000    -3.221000000
H     3.759000000     3.352000000    -4.702000000
O    -4.133000000     0.503000000    -2.546000000
H    -4.138000000     1.076000000    -1.779000000
H    -4.655000000    -0.254000000    -2.283000000
O     6.764000000    -2.362000000     0.680000000
H     6.254000000    -2.505000000     1.477000000
H     6.506000000    -1.489000000     0.384000000
O    -4.690000000     2.275000000     1.863000000
H    -5.245000000     1.511000000     1.703000000
H    -3.879000000     1.911000000     2.219000000
O     0.741000000     4.992000000    -3.602000000
H    -0.186000000     5.037000000    -3.368000000
H     0.848000000     4.122000000    -3.988000000
O     2.720000000    -1.159000000    -4.659000000
H     1.970000000    -1.627000000    -5.025000000
H     2.652000000    -0.276000000    -5.024000000
O    -2.646000000    -5.403000000    -0.449000000
H    -1.772000000    -5.612000000    -0.779000000
H    -2.729000000    -4.458000000    -0.574000000
O    -0.286000000     4.875000000     1.895000000
H    -0.992000000     5.161000000     2.475000000
H    -0.561000000     5.161000000     1.024000000
O     3.633000000     5.804000000     0.475000000
H     4.540000000     5.793000000     0.782000000
H     3.123000000     6.056000000     1.245000000
O     2.102000000     5.905000000     2.851000000
H     1.669000000     6.471000000     3.490000000
H     1.386000000     5.440000000     2.418000000
O    -3.400000000    -1.249000000     2.914000000
H    -3.442000000    -2.142000000     3.257000000
H    -3.973000000    -1.261000000     2.147000000
O     5.155000000     2.855000000    -1.031000000
H     5.111000000     2.310000000    -1.817000000
H     4.681000000     3.653000000    -1.266000000
O     5.001000000    -4.802000000    -0.438000000
H     4.990000000    -4.508000000    -1.349000000
H     5.879000000    -5.160000000    -0.313000000
O    -4.078000000    -5.266000000    -2.728000000
H    -4.993000000    -5.369000000    -2.468000000
H    -3.584000000    -5.741000000    -2.060000000
O     0.557000000     0.730000000     4.024000000
H     1.130000000     1.212000000     3.427000000
H     0.407000000     1.333000000     4.752000000
O     2.524000000    -3.569000000    -0.085000000
H     3.249000000    -4.191000000    -0.150000000
H     2.474000000    -3.167000000    -0.952000000
O     0.271000000     0.797000000    -3.051000000
H     0.622000000     0.691000000    -2.167000000
H    -0.242000000     0.003000000    -3.201000000
O     3.289000000     2.558000000     5.262000000
H     3.139000000     2.359000000     6.186000000
H     3.584000000     1.729000000     4.884000000
O    -6.021000000    -0.029000000     0.770000000
H    -5.177000000    -0.378000000     0.482000000
H    -6.453000000     0.250000000    -0.037000000
O     0.562000000    -1.571000000     2.684000000
H     0.577000000    -0.701000000     3.084000000
H     0.077000000    -1.450000000     1.867000000
O    -5.335000000    -2.915000000     1.061000000
H    -4.633000000    -2.507000000     0.554000000
H    -5.934000000    -2.196000000     1.261000000
O    -4.367000000    -2.509000000    -2.857000000
H    -4.115000000    -3.341000000    -3.257000000
H    -4.175000000    -2.622000000    -1.926000000
O     5.849000000     0.518000000    -4.194000000
H     5.299000000     1.301000000    -4.229000000
H     5.874000000     0.284000000    -3.267000000
