144
-2813.65839
O     6.596000000    -2.894000000    -1.935000000
H     7.122000000    -2.868000000    -1.136000000
H     5.692000000    -2.815000000    -1.630000000
O    -2.511000000    -1.081000000    -2.089000000
H    -2.249000000    -0.796000000    -2.965000000
H    -2.069000000    -0.473000000    -1.497000000
O    -0.916000000    -2.967000000     4.019000000
H    -0.508000000    -2.287000000     3.483000000
H    -0.402000000    -3.755000000     3.839000000
O     2.782000000     2.095000000     2.804000000
H     3.383000000     2.762000000     2.472000000
H     3.272000000     1.276000000     2.738000000
O    -1.828000000    -8.336000000    -1.634000000
H    -1.639000000    -7.613000000    -1.036000000
H    -2.153000000    -9.036000000    -1.068000000
O     5.782000000     2.142000000    -1.013000000
H     5.684000000     3.092000000    -0.943000000
H     5.800000000     1.836000000    -0.107000000
O     1.979000000    -4.822000000     0.863000000
H     1.214000000    -4.386000000     0.489000000
H     1.616000000    -5.445000000     1.492000000
O    -2.473000000     3.147000000     6.062000000
H    -2.178000000     2.421000000     5.513000000
H    -3.339000000     2.880000000     6.369000000
O     0.571000000    -5.961000000     4.440000000
H     1.319000000    -5.467000000     4.774000000
H     0.855000000    -6.273000000     3.580000000
O     1.643000000     5.175000000     3.979000000
H     0.978000000     4.560000000     4.288000000
H     1.931000000     5.633000000     4.768000000
O    -3.902000000    -2.195000000     0.131000000
H    -3.577000000    -1.649000000    -0.585000000
H    -3.157000000    -2.746000000     0.370000000
O     2.243000000     8.220000000    -0.064000000
H     3.103000000     8.011000000    -0.429000000
H     2.015000000     7.456000000     0.465000000
O     3.330000000    -3.134000000     2.469000000
H     4.052000000    -3.498000000     2.981000000
H     2.995000000    -3.876000000     1.966000000
O    -3.775000000     1.509000000     3.425000000
H    -4.397000000     2.212000000     3.234000000
H    -4.134000000     0.744000000     2.976000000
O    -1.674000000    -4.749000000    -2.682000000
H    -0.825000000    -4.346000000    -2.501000000
H    -2.030000000    -4.954000000    -1.817000000
O     1.851000000    -0.111000000     5.085000000
H     1.358000000     0.679000000     4.865000000
H     1.378000000    -0.818000000     4.647000000
O     0.711000000     2.511000000    -4.071000000
H     0.360000000     3.363000000    -3.814000000
H     1.657000000     2.596000000    -3.956000000
O    -0.142000000     5.202000000    -4.257000000
H    -0.010000000     5.662000000    -3.428000000
H     0.423000000     5.662000000    -4.878000000
O     1.935000000    -6.894000000    -2.951000000
H     1.433000000    -7.198000000    -3.707000000
H     1.797000000    -5.947000000    -2.937000000
O     3.544000000     2.977000000    -4.660000000
H     3.496000000     3.388000000    -5.523000000
H     4.137000000     2.236000000    -4.780000000
O    -3.712000000    -7.896000000     2.538000000
H    -3.412000000    -7.014000000     2.758000000
H    -3.110000000    -8.191000000     1.855000000
O    -4.741000000     4.734000000     0.209000000
H    -4.063000000     4.707000000     0.885000000
H    -4.737000000     3.855000000    -0.170000000
O    -1.590000000     0.661000000    -4.246000000
H    -1.043000000     1.425000000    -4.064000000
H    -0.968000000    -0.031000000    -4.474000000
O    -3.264000000    -1.884000000     5.429000000
H    -3.414000000    -2.233000000     4.550000000
H    -2.369000000    -1.544000000     5.401000000
O     3.146000000     4.375000000    -2.210000000
H     3.307000000     3.709000000    -2.878000000
H     4.012000000     4.726000000    -2.007000000
O    -2.684000000     5.426000000    -2.010000000
H    -3.029000000     6.316000000    -2.092000000
H    -2.616000000     5.112000000    -2.912000000
O    -2.604000000     4.582000000    -4.803000000
H    -2.529000000     3.751000000    -4.334000000
H    -1.698000000     4.850000000    -4.960000000
O     1.635000000    -4.116000000    -2.537000000
H     1.197000000    -3.939000000    -1.705000000
H     1.896000000    -3.253000000    -2.859000000
O    -1.613000000     0.325000000     4.813000000
H    -2.343000000     0.470000000     4.211000000
H    -0.837000000     0.576000000     4.312000000
O    -2.712000000     2.901000000    -0.806000000
H    -2.361000000     3.749000000    -1.078000000
H    -2.847000000     2.424000000    -1.624000000
O     2.588000000    -1.692000000    -3.638000000
H     2.531000000    -0.968000000    -4.262000000
H     3.275000000    -1.427000000    -3.026000000
O     1.491000000     6.066000000     1.403000000
H     1.705000000     5.651000000     2.239000000
H     0.538000000     6.008000000     1.344000000
O    -3.793000000     2.397000000    -3.561000000
H    -3.380000000     1.821000000    -4.205000000
H    -4.366000000     1.821000000    -3.056000000
O     0.813000000     5.782000000    -1.593000000
H     1.556000000     5.222000000    -1.817000000
H     0.608000000     5.556000000    -0.685000000
O    -1.794000000     3.848000000     2.775000000
H    -2.585000000     3.311000000     2.823000000
H    -1.594000000     4.061000000     3.687000000
O     0.257000000    -7.117000000     1.876000000
H     0.565000000    -7.450000000     1.033000000
H    -0.124000000    -7.879000000     2.311000000
O     3.806000000    -7.077000000    -0.306000000
H     3.710000000    -7.846000000    -0.867000000
H     3.066000000    -6.517000000    -0.538000000
O    -5.695000000    -4.963000000     1.765000000
H    -5.268000000    -5.547000000     1.137000000
H    -4.973000000    -4.514000000     2.204000000
O     1.232000000    -1.771000000     2.981000000
H     1.976000000    -2.363000000     2.865000000
H     1.438000000    -1.016000000     2.430000000
O    -1.371000000     5.854000000     0.610000000
H    -1.862000000     5.899000000    -0.210000000
H    -1.910000000     5.308000000     1.182000000
O     4.059000000    -3.395000000    -0.885000000
H     3.543000000    -4.193000000    -0.999000000
H     3.985000000    -3.194000000     0.048000000
O     0.296000000     1.963000000     3.593000000
H     1.228000000     1.938000000     3.375000000
H    -0.080000000     2.583000000     2.968000000
O    -2.946000000    -5.128000000     2.674000000
H    -2.498000000    -4.446000000     2.174000000
H    -3.096000000    -4.736000000     3.534000000
O     4.017000000    -0.415000000     2.505000000
H     3.682000000    -1.310000000     2.459000000
H     4.696000000    -0.378000000     1.832000000
O    -1.980000000    -5.823000000     0.015000000
H    -1.493000000    -5.057000000     0.319000000
H    -2.810000000    -5.783000000     0.490000000
O    -3.889000000    -3.678000000    -3.696000000
H    -4.346000000    -3.281000000    -2.954000000
H    -3.014000000    -3.873000000    -3.362000000
O    -4.406000000    -2.625000000     2.847000000
H    -4.088000000    -2.301000000     2.004000000
H    -5.110000000    -2.021000000     3.085000000
O     4.299000000    -0.289000000    -1.894000000
H     3.578000000     0.200000000    -1.497000000
H     5.085000000     0.191000000    -1.635000000
