144
-2820.98821
O     0.320000000     3.575000000    -4.717000000
H    -0.570000000     3.767000000    -4.421000000
H     0.884000000     4.022000000    -4.085000000
O    -2.143000000     2.613000000     5.291000000
H    -1.953000000     3.291000000     4.642000000
H    -2.830000000     2.993000000     5.839000000
O    -1.786000000     4.878000000     3.674000000
H    -1.153000000     4.953000000     2.960000000
H    -1.628000000     5.651000000     4.217000000
O     3.562000000    -2.000000000     2.871000000
H     4.208000000    -2.361000000     2.264000000
H     2.962000000    -2.726000000     3.042000000
O     1.369000000    -8.359000000    -0.603000000
H     1.201000000    -8.368000000    -1.546000000
H     0.802000000    -7.665000000    -0.266000000
O    -3.827000000    -1.983000000    -3.119000000
H    -3.841000000    -2.041000000    -4.074000000
H    -2.945000000    -1.677000000    -2.910000000
O     1.287000000    -7.117000000     2.494000000
H     1.783000000    -6.859000000     1.717000000
H     0.660000000    -7.766000000     2.174000000
O     3.888000000     3.227000000    -1.681000000
H     4.753000000     3.248000000    -2.091000000
H     3.975000000     3.791000000    -0.912000000
O     1.955000000    -4.179000000     3.283000000
H     2.393000000    -4.806000000     2.707000000
H     1.028000000    -4.408000000     3.225000000
O     2.854000000    -5.718000000     0.493000000
H     2.228000000    -5.002000000     0.386000000
H     3.001000000    -6.042000000    -0.396000000
O     5.618000000    -2.789000000    -3.411000000
H     4.963000000    -2.936000000    -2.728000000
H     5.132000000    -2.373000000    -4.122000000
O    -5.424000000    -2.399000000    -1.088000000
H    -4.968000000    -2.368000000    -1.929000000
H    -4.743000000    -2.622000000    -0.454000000
O     4.701000000    -6.077000000     2.498000000
H     4.026000000    -6.118000000     1.821000000
H     5.297000000    -6.795000000     2.287000000
O    -3.844000000     4.952000000     0.754000000
H    -4.665000000     5.366000000     1.019000000
H    -3.903000000     4.060000000     1.097000000
O     1.338000000    -0.892000000    -4.750000000
H     1.741000000    -1.755000000    -4.840000000
H     2.007000000    -0.358000000    -4.322000000
O    -4.653000000     2.362000000    -2.549000000
H    -4.207000000     1.645000000    -2.999000000
H    -4.807000000     3.015000000    -3.232000000
O     5.220000000     4.287000000     0.547000000
H     5.969000000     3.724000000     0.741000000
H     5.057000000     4.758000000     1.364000000
O    -0.060000000     5.725000000    -1.160000000
H     0.265000000     5.174000000    -0.448000000
H     0.699000000     5.854000000    -1.729000000
O    -3.530000000     0.747000000    -4.575000000
H    -2.593000000     0.714000000    -4.382000000
H    -3.623000000     1.471000000    -5.194000000
O    -0.904000000    -2.482000000    -3.377000000
H    -0.402000000    -1.732000000    -3.696000000
H    -0.285000000    -3.211000000    -3.400000000
O     4.778000000    -5.664000000    -1.853000000
H     5.688000000    -5.532000000    -1.586000000
H     4.362000000    -4.812000000    -1.716000000
O    -3.616000000    -3.403000000     0.543000000
H    -3.813000000    -3.390000000     1.479000000
H    -2.663000000    -3.320000000     0.497000000
O     1.958000000     5.381000000     0.979000000
H     1.616000000     5.291000000     1.869000000
H     2.853000000     5.698000000     1.098000000
O    -2.250000000     4.373000000    -4.323000000
H    -2.750000000     4.435000000    -3.509000000
H    -2.173000000     5.277000000    -4.627000000
O     1.363000000    -1.260000000     4.733000000
H     2.215000000    -1.411000000     4.323000000
H     0.894000000    -2.086000000     4.621000000
O     3.736000000     1.348000000    -3.641000000
H     4.311000000     2.082000000    -3.858000000
H     3.381000000     1.568000000    -2.779000000
O    -3.578000000    -3.063000000     5.543000000
H    -4.407000000    -2.934000000     6.003000000
H    -3.832000000    -3.374000000     4.674000000
O     0.713000000     6.119000000     3.314000000
H     0.692000000     6.965000000     3.761000000
H     0.712000000     5.474000000     4.021000000
O     2.586000000    -3.238000000    -4.652000000
H     2.085000000    -3.996000000    -4.351000000
H     3.132000000    -3.577000000    -5.362000000
O     4.591000000    -0.498000000    -1.863000000
H     5.517000000    -0.299000000    -1.996000000
H     4.131000000     0.091000000    -2.462000000
O    -5.846000000     2.731000000     4.518000000
H    -5.466000000     2.639000000     3.644000000
H    -6.755000000     2.451000000     4.414000000
O     3.641000000    -3.181000000    -1.517000000
H     2.748000000    -3.342000000    -1.213000000
H     3.927000000    -2.413000000    -1.023000000
O    -0.713000000     0.983000000    -5.264000000
H     0.001000000     0.346000000    -5.293000000
H    -0.339000000     1.741000000    -4.814000000
O    -4.940000000     2.577000000     2.004000000
H    -5.856000000     2.599000000     1.727000000
H    -4.662000000     1.676000000     1.839000000
O    -0.320000000    -6.109000000    -0.806000000
H    -0.357000000    -5.275000000    -0.338000000
H    -1.190000000    -6.490000000    -0.687000000
O     3.437000000     3.643000000     4.425000000
H     2.551000000     3.905000000     4.673000000
H     3.313000000     2.880000000     3.861000000
O     2.114000000     5.070000000    -2.496000000
H     2.516000000     4.235000000    -2.256000000
H     2.799000000     5.537000000    -2.974000000
O     0.187000000     0.937000000     5.702000000
H    -0.753000000     0.993000000     5.531000000
H     0.441000000     0.077000000     5.367000000
O    -4.367000000    -4.005000000     3.208000000
H    -5.306000000    -4.134000000     3.070000000
H    -3.952000000    -4.703000000     2.702000000
O    -1.986000000     7.068000000     0.677000000
H    -1.241000000     6.669000000     0.227000000
H    -2.482000000     6.326000000     1.022000000
O     2.111000000     1.931000000     2.406000000
H     1.734000000     2.047000000     1.534000000
H     1.579000000     1.245000000     2.809000000
O     0.837000000     3.857000000     5.343000000
H     0.433000000     3.060000000     5.002000000
H     1.203000000     3.598000000     6.189000000
O    -2.868000000     5.379000000    -1.815000000
H    -1.928000000     5.486000000    -1.669000000
H    -3.234000000     5.255000000    -0.939000000
O     4.953000000     0.671000000     0.910000000
H     4.915000000     0.928000000    -0.012000000
H     4.343000000    -0.063000000     0.979000000
O    -2.353000000    -4.668000000    -2.280000000
H    -2.753000000    -3.807000000    -2.402000000
H    -1.462000000    -4.479000000    -1.988000000
O    -0.662000000    -4.564000000     4.092000000
H    -1.473000000    -4.593000000     3.585000000
H    -0.931000000    -4.780000000     4.985000000
O    -2.128000000    -5.999000000     2.041000000
H    -1.613000000    -5.293000000     1.651000000
H    -1.553000000    -6.763000000     2.007000000
O     0.755000000    -4.636000000    -3.141000000
H     0.614000000    -5.289000000    -2.456000000
H     1.422000000    -4.051000000    -2.781000000
