144
-2834.73515
O    -0.819000000     2.743000000    -6.052000000
H    -0.967000000     3.613000000    -6.421000000
H     0.133000000     2.643000000    -6.047000000
O    -2.731000000     1.592000000     5.535000000
H    -3.317000000     1.019000000     5.040000000
H    -1.996000000     1.030000000     5.779000000
O    -5.119000000     1.768000000     3.856000000
H    -5.598000000     2.591000000     3.952000000
H    -4.461000000     1.950000000     3.185000000
O    -4.133000000     0.240000000    -0.252000000
H    -4.852000000     0.471000000    -0.839000000
H    -3.474000000    -0.154000000    -0.823000000
O     0.566000000    -2.387000000     4.388000000
H     0.652000000    -2.680000000     3.481000000
H     1.448000000    -2.469000000     4.751000000
O    -3.776000000     3.184000000    -4.809000000
H    -3.365000000     2.954000000    -3.975000000
H    -3.300000000     2.670000000    -5.460000000
O     2.025000000    -6.835000000     3.095000000
H     1.112000000    -6.774000000     2.815000000
H     2.506000000    -6.302000000     2.462000000
O     2.414000000     3.332000000    -3.870000000
H     2.627000000     3.804000000    -3.065000000
H     2.591000000     2.414000000    -3.663000000
O    -0.506000000    -6.097000000     1.984000000
H    -0.835000000    -6.102000000     1.085000000
H    -0.225000000    -5.194000000     2.131000000
O     3.764000000    -2.116000000    -2.874000000
H     3.670000000    -1.250000000    -2.476000000
H     2.982000000    -2.215000000    -3.417000000
O     1.799000000    -2.846000000    -4.791000000
H     0.976000000    -3.239000000    -4.501000000
H     2.351000000    -3.591000000    -5.027000000
O    -3.042000000    -7.924000000    -1.283000000
H    -3.987000000    -7.881000000    -1.142000000
H    -2.750000000    -7.014000000    -1.227000000
O    -3.650000000     3.112000000     0.453000000
H    -4.522000000     3.265000000     0.817000000
H    -3.644000000     2.182000000     0.228000000
O     1.039000000    -0.814000000    -6.276000000
H     1.546000000    -1.443000000    -5.763000000
H     1.437000000     0.034000000    -6.077000000
O     2.795000000    -4.646000000     4.782000000
H     3.499000000    -4.645000000     5.431000000
H     3.216000000    -4.935000000     3.973000000
O     2.172000000     5.833000000    -2.015000000
H     1.705000000     6.669000000    -2.024000000
H     1.713000000     5.310000000    -1.358000000
O     3.448000000     5.654000000     1.240000000
H     4.012000000     4.971000000     0.877000000
H     3.086000000     5.267000000     2.037000000
O    -1.472000000     7.235000000    -1.943000000
H    -1.443000000     6.608000000    -1.221000000
H    -0.584000000     7.590000000    -1.988000000
O    -0.325000000    -4.760000000    -3.860000000
H    -0.918000000    -4.008000000    -3.828000000
H    -0.671000000    -5.307000000    -4.565000000
O     2.418000000    -7.671000000    -0.330000000
H     1.782000000    -7.211000000    -0.877000000
H     2.175000000    -8.594000000    -0.403000000
O    -2.513000000    -5.464000000    -0.455000000
H    -3.066000000    -4.990000000     0.166000000
H    -1.718000000    -4.935000000    -0.519000000
O     0.977000000     6.672000000     0.439000000
H     1.020000000     7.628000000     0.420000000
H     1.841000000     6.400000000     0.748000000
O    -2.018000000    -2.600000000    -4.273000000
H    -2.538000000    -2.759000000    -5.060000000
H    -2.083000000    -1.656000000    -4.129000000
O    -2.143000000     5.671000000    -4.599000000
H    -2.243000000     6.166000000    -3.786000000
H    -2.596000000     4.845000000    -4.434000000
O    -1.751000000    -3.286000000     5.573000000
H    -1.067000000    -3.243000000     4.905000000
H    -1.279000000    -3.235000000     6.404000000
O    -4.269000000    -5.933000000     2.492000000
H    -3.599000000    -5.262000000     2.622000000
H    -3.918000000    -6.709000000     2.928000000
O     1.148000000     2.486000000     4.129000000
H     0.811000000     1.668000000     4.493000000
H     0.380000000     2.915000000     3.751000000
O     4.565000000     0.161000000    -0.555000000
H     4.047000000     0.053000000     0.243000000
H     5.458000000    -0.061000000    -0.292000000
O     3.289000000    -3.692000000    -0.654000000
H     2.417000000    -4.083000000    -0.713000000
H     3.425000000    -3.281000000    -1.508000000
O     3.583000000     0.828000000    -3.147000000
H     4.233000000     0.639000000    -3.823000000
H     4.068000000     0.763000000    -2.324000000
O    -4.138000000    -1.303000000     1.967000000
H    -3.922000000    -0.580000000     1.379000000
H    -4.839000000    -1.776000000     1.519000000
O     0.754000000    -5.951000000    -1.592000000
H     0.500000000    -5.218000000    -1.031000000
H     0.607000000    -5.634000000    -2.483000000
O    -1.772000000     0.362000000    -5.391000000
H    -1.231000000    -0.173000000    -5.972000000
H    -1.300000000     1.193000000    -5.322000000
O     1.573000000     5.926000000    -5.675000000
H     1.302000000     5.680000000    -4.791000000
H     2.473000000     5.609000000    -5.747000000
O    -0.612000000    -8.205000000    -2.599000000
H    -1.530000000    -8.207000000    -2.326000000
H    -0.281000000    -7.351000000    -2.321000000
O     3.930000000    -1.929000000     3.391000000
H     3.828000000    -2.781000000     2.967000000
H     3.317000000    -1.357000000     2.930000000
O     1.857000000     2.186000000    -6.271000000
H     2.139000000     2.871000000    -5.664000000
H     2.592000000     2.086000000    -6.876000000
O     2.880000000    -4.283000000     1.907000000
H     3.106000000    -4.380000000     0.982000000
H     1.944000000    -4.084000000     1.906000000
O    -1.602000000     5.426000000     0.270000000
H    -0.832000000     5.665000000     0.786000000
H    -1.875000000     4.581000000     0.627000000
O    -0.398000000     0.139000000     5.194000000
H    -0.370000000    -0.756000000     4.856000000
H     0.348000000     0.192000000     5.792000000
O    -1.358000000     3.437000000     3.540000000
H    -1.649000000     4.341000000     3.664000000
H    -1.674000000     2.975000000     4.316000000
O     4.229000000     2.189000000     3.484000000
H     3.334000000     2.432000000     3.721000000
H     4.731000000     2.310000000     4.291000000
O    -3.962000000     4.370000000    -2.280000000
H    -4.454000000     5.118000000    -1.941000000
H    -3.523000000     4.004000000    -1.512000000
O     2.731000000    -0.126000000     1.889000000
H     3.106000000     0.584000000     2.410000000
H     1.959000000     0.261000000     1.477000000
O    -2.824000000    -3.697000000     2.255000000
H    -1.900000000    -3.467000000     2.153000000
H    -3.293000000    -2.877000000     2.101000000
O    -4.277000000     6.647000000    -0.386000000
H    -3.511000000     6.979000000    -0.854000000
H    -3.924000000     5.994000000     0.218000000
O    -2.022000000     1.599000000    -2.934000000
H    -1.948000000     1.006000000    -3.682000000
H    -1.592000000     1.134000000    -2.216000000
O    -4.027000000    -1.861000000     4.923000000
H    -3.856000000    -1.815000000     3.982000000
H    -3.345000000    -2.441000000     5.261000000
