144
-2823.34200
O     1.742000000    -8.637000000    -1.184000000
H     1.382000000    -9.294000000    -1.781000000
H     0.997000000    -8.077000000    -0.967000000
O    -3.495000000    -0.549000000     0.048000000
H    -2.885000000    -0.129000000    -0.558000000
H    -4.040000000    -1.106000000    -0.509000000
O     3.575000000    -0.736000000    -1.906000000
H     2.692000000    -0.394000000    -2.041000000
H     3.466000000    -1.687000000    -1.904000000
O     0.756000000    -3.296000000     6.085000000
H     0.610000000    -3.093000000     5.161000000
H     1.426000000    -3.979000000     6.077000000
O     3.854000000     5.770000000     0.484000000
H     3.669000000     5.440000000    -0.395000000
H     4.404000000     5.096000000     0.883000000
O     1.947000000     4.879000000    -1.301000000
H     2.140000000     4.946000000    -2.237000000
H     1.300000000     4.176000000    -1.239000000
O     3.907000000    -6.778000000     3.292000000
H     3.520000000    -7.008000000     4.136000000
H     3.220000000    -6.290000000     2.838000000
O    -2.263000000     5.870000000    -1.341000000
H    -1.665000000     5.292000000    -1.816000000
H    -2.756000000     6.319000000    -2.027000000
O     1.013000000     7.216000000     0.278000000
H     1.202000000     6.333000000    -0.040000000
H     0.749000000     7.091000000     1.189000000
O    -1.427000000    -3.293000000    -3.811000000
H    -0.995000000    -2.439000000    -3.828000000
H    -1.866000000    -3.357000000    -4.659000000
O     0.983000000    -2.599000000     3.303000000
H     0.509000000    -2.683000000     2.476000000
H     1.713000000    -3.213000000     3.223000000
O    -3.585000000     4.910000000     0.962000000
H    -2.790000000     4.384000000     1.053000000
H    -3.341000000     5.610000000     0.357000000
O     3.988000000    -3.429000000    -1.573000000
H     3.496000000    -3.411000000    -0.752000000
H     4.861000000    -3.732000000    -1.322000000
O     4.017000000    -2.391000000    -5.041000000
H     3.279000000    -2.669000000    -4.498000000
H     4.612000000    -3.141000000    -5.037000000
O     1.913000000     6.234000000     2.582000000
H     2.523000000     6.000000000     1.883000000
H     2.471000000     6.560000000     3.288000000
O    -0.600000000     0.446000000    -6.875000000
H    -1.365000000     0.663000000    -6.342000000
H    -0.029000000     1.210000000    -6.798000000
O    -0.116000000    -6.140000000    -3.690000000
H     0.115000000    -6.310000000    -2.777000000
H    -0.244000000    -5.192000000    -3.732000000
O     1.945000000     3.473000000     3.588000000
H     2.206000000     3.807000000     4.446000000
H     1.960000000     4.241000000     3.018000000
O    -4.505000000    -2.114000000    -1.917000000
H    -3.849000000    -2.810000000    -1.880000000
H    -4.259000000    -1.594000000    -2.682000000
O    -2.280000000    -3.502000000     1.485000000
H    -2.401000000    -2.841000000     2.166000000
H    -2.286000000    -3.007000000     0.666000000
O    -0.561000000     0.549000000     5.575000000
H    -0.809000000     0.037000000     6.345000000
H     0.343000000     0.289000000     5.395000000
O    -4.508000000     3.409000000    -3.010000000
H    -4.023000000     4.196000000    -3.260000000
H    -4.308000000     3.289000000    -2.082000000
O    -0.731000000    -5.780000000     1.811000000
H    -1.271000000    -5.063000000     1.477000000
H    -1.313000000    -6.266000000     2.396000000
O     6.047000000    -2.307000000     0.981000000
H     6.230000000    -2.006000000     0.091000000
H     5.830000000    -1.510000000     1.464000000
O     1.097000000     1.638000000    -3.266000000
H     1.418000000     1.441000000    -4.146000000
H     1.886000000     1.840000000    -2.763000000
O     2.011000000    -3.052000000    -3.359000000
H     2.683000000    -3.348000000    -2.745000000
H     1.184000000    -3.203000000    -2.900000000
O     5.562000000    -0.065000000     2.332000000
H     4.662000000     0.147000000     2.084000000
H     5.540000000    -0.119000000     3.287000000
O     4.321000000     1.723000000    -0.823000000
H     4.338000000     0.851000000    -1.217000000
H     5.148000000     2.124000000    -1.092000000
O     1.909000000    -0.539000000     4.817000000
H     2.788000000    -0.364000000     4.481000000
H     1.633000000    -1.335000000     4.362000000
O    -0.508000000    -0.677000000    -4.010000000
H    -0.112000000    -0.357000000    -4.821000000
H     0.000000000    -0.259000000    -3.314000000
O     0.148000000    -6.394000000    -0.733000000
H     0.457000000    -5.511000000    -0.935000000
H    -0.082000000    -6.360000000     0.196000000
O    -4.862000000     3.042000000    -0.498000000
H    -5.738000000     2.765000000    -0.226000000
H    -4.533000000     3.552000000     0.241000000
O    -1.477000000     4.603000000     5.379000000
H    -1.050000000     4.732000000     4.531000000
H    -2.403000000     4.774000000     5.209000000
O    -2.877000000    -4.762000000    -2.074000000
H    -2.331000000    -4.207000000    -2.631000000
H    -2.273000000    -5.415000000    -1.721000000
O     4.319000000    -3.389000000     4.957000000
H     5.201000000    -3.016000000     4.934000000
H     3.956000000    -3.199000000     4.093000000
O     3.698000000    -3.091000000     2.296000000
H     4.544000000    -2.911000000     1.886000000
H     3.058000000    -2.945000000     1.599000000
O    -2.634000000     2.029000000    -5.257000000
H    -2.418000000     2.812000000    -4.751000000
H    -3.559000000     2.134000000    -5.479000000
O    -2.172000000     1.731000000     3.711000000
H    -1.639000000     2.003000000     2.964000000
H    -1.544000000     1.362000000     4.332000000
O    -5.513000000     1.890000000     2.403000000
H    -5.230000000     1.529000000     1.563000000
H    -5.669000000     1.123000000     2.953000000
O    -4.128000000     3.671000000     4.066000000
H    -3.434000000     3.013000000     4.120000000
H    -4.804000000     3.262000000     3.526000000
O    -3.424000000    -0.731000000    -4.006000000
H    -2.498000000    -0.760000000    -4.246000000
H    -3.736000000     0.104000000    -4.355000000
O     3.339000000     1.483000000     2.369000000
H     2.618000000     2.034000000     2.675000000
H     3.089000000     1.236000000     1.478000000
O     4.956000000     3.653000000     2.166000000
H     5.768000000     3.328000000     1.776000000
H     4.351000000     2.913000000     2.110000000
O    -5.546000000     5.991000000    -1.718000000
H    -5.651000000     6.209000000    -0.792000000
H    -4.601000000     6.024000000    -1.866000000
O     1.880000000    -5.381000000     1.870000000
H     1.947000000    -4.600000000     1.320000000
H     0.948000000    -5.598000000     1.865000000
O    -0.703000000     5.635000000     3.133000000
H    -1.105000000     6.460000000     2.859000000
H     0.224000000     5.739000000     2.922000000
O    -0.848000000     4.021000000    -3.091000000
H    -0.341000000     3.225000000    -2.927000000
H    -0.663000000     4.238000000    -4.005000000
O    -2.972000000    -0.794000000     2.754000000
H    -2.769000000    -0.025000000     3.286000000
H    -3.356000000    -0.436000000     1.953000000
