144
-2786.74591
O    -0.042000000    -6.930000000    -3.968000000
H    -0.009000000    -6.267000000    -3.278000000
H    -0.658000000    -6.577000000    -4.610000000
O    -4.840000000    -1.494000000     0.762000000
H    -4.523000000    -1.858000000     1.588000000
H    -4.814000000    -0.546000000     0.892000000
O     2.205000000    -2.831000000    -5.516000000
H     1.941000000    -1.981000000    -5.163000000
H     1.576000000    -3.006000000    -6.215000000
O    -0.127000000    -2.199000000     4.919000000
H     0.327000000    -2.821000000     4.350000000
H     0.337000000    -2.256000000     5.754000000
O     1.014000000     4.670000000     0.023000000
H     1.786000000     5.159000000     0.310000000
H     0.508000000     5.301000000    -0.490000000
O     4.576000000    -6.362000000    -1.536000000
H     4.274000000    -5.832000000    -0.798000000
H     4.362000000    -5.839000000    -2.309000000
O    -1.848000000     5.375000000    -1.968000000
H    -1.196000000     4.822000000    -2.398000000
H    -2.193000000     5.928000000    -2.669000000
O     5.021000000    -5.229000000     3.357000000
H     4.157000000    -5.140000000     3.760000000
H     5.550000000    -4.548000000     3.773000000
O    -1.201000000    -2.552000000    -5.231000000
H    -1.025000000    -1.611000000    -5.256000000
H    -1.673000000    -2.729000000    -6.044000000
O     1.277000000    -3.489000000     3.004000000
H     1.271000000    -4.429000000     2.824000000
H     1.767000000    -3.108000000     2.275000000
O    -2.273000000     5.613000000     0.794000000
H    -2.105000000     6.538000000     0.974000000
H    -2.118000000     5.519000000    -0.145000000
O     5.256000000    -3.426000000    -2.076000000
H     4.694000000    -3.422000000    -2.851000000
H     6.024000000    -3.933000000    -2.340000000
O     1.218000000     5.557000000     2.994000000
H     1.482000000     5.451000000     2.080000000
H     2.003000000     5.341000000     3.497000000
O    -0.993000000    -3.668000000    -2.806000000
H    -0.143000000    -3.574000000    -2.376000000
H    -0.909000000    -3.162000000    -3.614000000
O     3.317000000    -4.643000000    -3.634000000
H     2.852000000    -4.630000000    -2.798000000
H     2.704000000    -4.252000000    -4.256000000
O     2.072000000     2.325000000     3.101000000
H     1.622000000     1.582000000     3.502000000
H     2.060000000     3.004000000     3.776000000
O    -4.429000000     0.683000000     2.509000000
H    -4.148000000    -0.214000000     2.689000000
H    -3.685000000     1.225000000     2.773000000
O    -1.767000000    -2.578000000     1.419000000
H    -2.126000000    -2.194000000     2.219000000
H    -1.032000000    -2.010000000     1.189000000
O    -2.244000000     1.773000000     3.984000000
H    -2.245000000     2.722000000     3.857000000
H    -1.573000000     1.622000000     4.650000000
O    -2.232000000     2.419000000    -3.978000000
H    -1.467000000     2.988000000    -3.889000000
H    -1.870000000     1.571000000    -4.235000000
O    -0.749000000    -6.399000000    -0.147000000
H    -1.355000000    -7.061000000    -0.481000000
H    -1.314000000    -5.686000000     0.149000000
O     0.787000000    -6.504000000     2.194000000
H     1.707000000    -6.528000000     1.932000000
H     0.305000000    -6.433000000     1.370000000
O     6.530000000     0.588000000     1.993000000
H     6.052000000     0.569000000     1.164000000
H     5.864000000     0.797000000     2.648000000
O     1.463000000     1.493000000    -4.125000000
H     2.071000000     1.442000000    -3.387000000
H     1.838000000     2.162000000    -4.698000000
O     3.360000000    -1.373000000    -3.242000000
H     2.786000000    -1.957000000    -2.746000000
H     3.512000000    -0.632000000    -2.655000000
O     2.585000000    -7.481000000    -4.369000000
H     2.791000000    -6.771000000    -3.761000000
H     1.673000000    -7.327000000    -4.616000000
O     4.703000000     1.524000000     3.901000000
H     3.832000000     1.753000000     3.577000000
H     5.069000000     2.352000000     4.213000000
O     3.689000000     1.005000000    -2.008000000
H     3.292000000     1.426000000    -1.245000000
H     4.589000000     0.823000000    -1.740000000
O     1.199000000     0.168000000     4.394000000
H     1.872000000    -0.504000000     4.506000000
H     0.402000000    -0.323000000     4.196000000
O    -0.991000000     0.297000000    -5.031000000
H    -1.002000000     0.829000000    -5.827000000
H    -0.210000000     0.588000000    -4.559000000
O     1.520000000    -5.646000000    -1.538000000
H     1.611000000    -4.693000000    -1.538000000
H     0.688000000    -5.807000000    -1.094000000
O     7.482000000    -3.631000000    -0.117000000
H     6.582000000    -3.326000000     0.002000000
H     7.524000000    -3.895000000    -1.036000000
O    -4.588000000     2.751000000    -1.934000000
H    -4.576000000     3.644000000    -1.589000000
H    -3.751000000     2.658000000    -2.390000000
O    -4.964000000     1.757000000     5.207000000
H    -4.278000000     1.596000000     4.560000000
H    -4.924000000     2.699000000     5.369000000
O    -1.658000000     7.335000000     4.054000000
H    -1.636000000     6.416000000     3.787000000
H    -1.277000000     7.338000000     4.932000000
O    -2.415000000    -4.297000000    -0.370000000
H    -2.047000000    -3.620000000     0.197000000
H    -1.948000000    -4.196000000    -1.199000000
O     4.983000000    -2.782000000     0.600000000
H     4.920000000    -2.925000000    -0.344000000
H     4.078000000    -2.827000000     0.910000000
O    -4.768000000     1.545000000    -5.069000000
H    -5.218000000     2.297000000    -5.454000000
H    -4.213000000     1.923000000    -4.386000000
O    -1.337000000     4.483000000     3.234000000
H    -1.496000000     4.417000000     2.293000000
H    -0.385000000     4.426000000     3.321000000
O    -4.709000000     4.765000000     2.001000000
H    -3.862000000     4.952000000     1.595000000
H    -5.114000000     4.119000000     1.423000000
O    -3.475000000    -2.163000000    -3.000000000
H    -2.520000000    -2.151000000    -3.072000000
H    -3.781000000    -1.739000000    -3.802000000
O     2.919000000     2.496000000     0.248000000
H     2.507000000     2.301000000     1.089000000
H     2.324000000     3.116000000    -0.173000000
O    -4.740000000     5.337000000    -1.271000000
H    -5.264000000     6.030000000    -0.869000000
H    -3.852000000     5.694000000    -1.300000000
O     3.262000000    -5.477000000     0.883000000
H     2.778000000    -4.669000000     0.712000000
H     3.636000000    -5.352000000     1.755000000
O     2.855000000    -7.951000000     0.238000000
H     3.367000000    -7.180000000     0.480000000
H     2.783000000    -7.902000000    -0.715000000
O     0.052000000     3.996000000    -3.545000000
H     0.548000000     3.274000000    -3.929000000
H     0.670000000     4.727000000    -3.523000000
O    -6.858000000     1.980000000     2.706000000
H    -6.103000000     1.396000000     2.783000000
H    -6.748000000     2.402000000     1.853000000
O    -0.260000000     2.017000000     6.069000000
H     0.039000000     2.638000000     6.734000000
H     0.446000000     1.374000000     6.007000000
