144
-2806.58648
O     2.128000000     0.271000000     4.950000000
H     1.770000000     0.907000000     5.569000000
H     2.622000000     0.798000000     4.323000000
O    -4.649000000    -2.004000000     3.441000000
H    -4.181000000    -2.395000000     4.179000000
H    -5.422000000    -1.600000000     3.834000000
O     1.746000000     4.207000000    -3.898000000
H     0.938000000     4.223000000    -3.385000000
H     2.084000000     3.319000000    -3.783000000
O     0.776000000    -4.510000000     0.111000000
H     0.264000000    -4.678000000     0.902000000
H     1.667000000    -4.774000000     0.341000000
O     2.261000000     6.383000000    -1.565000000
H     1.558000000     5.884000000    -1.150000000
H     3.056000000     6.098000000    -1.114000000
O     2.847000000    -0.336000000    -4.037000000
H     3.179000000     0.561000000    -4.048000000
H     1.922000000    -0.253000000    -4.269000000
O    -1.079000000    -3.838000000     4.746000000
H    -0.447000000    -3.307000000     5.231000000
H    -1.928000000    -3.599000000     5.116000000
O    -1.969000000    -0.320000000     5.349000000
H    -2.501000000    -1.111000000     5.430000000
H    -2.570000000     0.395000000     5.558000000
O     0.829000000     1.120000000    -6.277000000
H    -0.105000000     1.258000000    -6.439000000
H     0.960000000     1.403000000    -5.372000000
O     6.107000000     0.387000000    -5.119000000
H     6.947000000     0.839000000    -5.038000000
H     5.453000000     1.078000000    -5.016000000
O     4.452000000     5.067000000    -3.773000000
H     3.595000000     4.831000000    -3.417000000
H     4.279000000     5.284000000    -4.689000000
O     4.174000000     2.269000000    -4.182000000
H     4.407000000     3.152000000    -3.896000000
H     3.375000000     2.062000000    -3.696000000
O    -1.256000000    -5.178000000     2.175000000
H    -0.972000000    -4.637000000     2.912000000
H    -2.180000000    -4.955000000     2.057000000
O     4.065000000     5.672000000     0.571000000
H     3.819000000     4.858000000     0.131000000
H     5.016000000     5.719000000     0.475000000
O    -0.277000000    -1.532000000    -7.124000000
H     0.199000000    -0.806000000    -7.527000000
H    -0.159000000    -1.404000000    -6.183000000
O    -6.660000000     1.167000000    -2.161000000
H    -6.351000000     0.721000000    -1.373000000
H    -5.885000000     1.613000000    -2.504000000
O     5.381000000     0.046000000    -0.526000000
H     5.320000000    -0.523000000     0.241000000
H     5.417000000    -0.556000000    -1.269000000
O    -6.458000000     0.366000000     0.885000000
H    -6.303000000     0.980000000     1.603000000
H    -7.405000000     0.391000000     0.749000000
O    -4.781000000    -1.312000000    -4.122000000
H    -4.803000000    -1.008000000    -3.215000000
H    -4.104000000    -1.988000000    -4.131000000
O    -1.711000000     1.439000000     3.461000000
H    -1.678000000     0.485000000     3.388000000
H    -1.645000000     1.610000000     4.400000000
O    -0.520000000     5.142000000    -2.722000000
H    -0.886000000     6.010000000    -2.551000000
H    -1.254000000     4.542000000    -2.589000000
O    -0.289000000    -1.267000000    -4.334000000
H    -1.194000000    -1.513000000    -4.145000000
H    -0.228000000    -0.351000000    -4.062000000
O     6.233000000     2.391000000    -1.260000000
H     5.888000000     1.519000000    -1.073000000
H     7.173000000     2.317000000    -1.095000000
O    -2.611000000     3.769000000     1.794000000
H    -2.044000000     3.009000000     1.927000000
H    -2.676000000     3.855000000     0.843000000
O    -5.286000000     2.071000000     2.871000000
H    -5.059000000     2.917000000     3.257000000
H    -4.486000000     1.552000000     2.945000000
O     3.014000000     0.471000000    -7.677000000
H     3.553000000    -0.303000000    -7.510000000
H     2.229000000     0.336000000    -7.145000000
O     0.706000000     5.012000000     0.399000000
H     0.268000000     4.345000000     0.927000000
H     1.222000000     5.515000000     1.028000000
O     4.332000000    -1.405000000     5.287000000
H     5.143000000    -1.148000000     4.849000000
H     3.707000000    -0.719000000     5.054000000
O    -3.387000000    -2.850000000     5.828000000
H    -3.654000000    -3.756000000     5.980000000
H    -4.068000000    -2.326000000     6.249000000
O    -1.958000000     2.221000000    -6.135000000
H    -1.779000000     3.134000000    -6.357000000
H    -2.807000000     2.038000000    -6.537000000
O    -0.593000000    -3.597000000    -2.017000000
H     0.092000000    -3.491000000    -2.677000000
H    -0.167000000    -4.076000000    -1.305000000
O     0.254000000     2.797000000     2.421000000
H     0.922000000     3.014000000     3.071000000
H    -0.388000000     2.275000000     2.903000000
O    -2.876000000     4.271000000    -1.259000000
H    -2.612000000     3.541000000    -1.819000000
H    -3.832000000     4.245000000    -1.265000000
O     0.330000000    -1.542000000     6.015000000
H     1.178000000    -1.293000000     5.649000000
H    -0.280000000    -0.887000000     5.675000000
O    -4.342000000    -1.273000000     0.990000000
H    -4.312000000    -1.402000000     1.938000000
H    -5.158000000    -0.795000000     0.839000000
O    -3.169000000    -4.487000000    -1.767000000
H    -2.345000000    -4.005000000    -1.832000000
H    -3.814000000    -3.827000000    -1.514000000
O     4.659000000    -2.079000000    -2.561000000
H     4.274000000    -1.611000000    -3.301000000
H     3.910000000    -2.324000000    -2.017000000
O    -1.948000000     2.565000000    -3.251000000
H    -2.408000000     2.537000000    -4.090000000
H    -1.103000000     2.151000000    -3.427000000
O     2.962000000     1.685000000     2.670000000
H     3.144000000     2.607000000     2.487000000
H     2.153000000     1.501000000     2.192000000
O     2.136000000    -5.494000000     3.163000000
H     2.404000000    -6.063000000     2.441000000
H     1.282000000    -5.833000000     3.431000000
O     0.446000000     3.468000000    -8.109000000
H     0.546000000     4.221000000    -8.692000000
H     0.424000000     3.847000000    -7.230000000
O    -3.674000000    -3.935000000     1.629000000
H    -4.098000000    -3.381000000     2.284000000
H    -3.313000000    -3.319000000     0.992000000
O     1.831000000    -3.255000000    -3.691000000
H     1.984000000    -2.310000000    -3.679000000
H     1.897000000    -3.496000000    -4.615000000
O     1.580000000     5.294000000    -6.430000000
H     2.521000000     5.124000000    -6.471000000
H     1.333000000     5.062000000    -5.534000000
O     2.392000000    -2.084000000    -1.228000000
H     2.156000000    -1.216000000    -0.901000000
H     1.704000000    -2.661000000    -0.893000000
O     5.509000000    -1.723000000     1.404000000
H     5.702000000    -1.003000000     2.004000000
H     4.829000000    -2.229000000     1.848000000
O    -4.967000000    -2.480000000    -1.360000000
H    -5.872000000    -2.672000000    -1.115000000
H    -4.573000000    -2.124000000    -0.564000000
O     3.501000000     3.495000000    -1.063000000
H     4.384000000     3.187000000    -1.265000000
H     2.926000000     2.925000000    -1.574000000
