144
-2819.56350
O     3.818000000    -2.004000000    -2.861000000
H     4.034000000    -2.839000000    -3.277000000
H     3.226000000    -2.239000000    -2.147000000
O    -2.214000000     0.992000000    -3.349000000
H    -2.813000000     1.719000000    -3.522000000
H    -1.831000000     1.196000000    -2.496000000
O     3.562000000     1.094000000    -1.105000000
H     4.049000000     0.778000000    -0.344000000
H     3.754000000     0.458000000    -1.794000000
O    -0.745000000    -4.921000000     1.042000000
H     0.189000000    -4.793000000     1.211000000
H    -0.863000000    -5.871000000     1.062000000
O     6.661000000    -1.591000000    -1.872000000
H     5.827000000    -1.747000000    -2.315000000
H     6.893000000    -2.438000000    -1.493000000
O     2.170000000    -5.551000000    -2.334000000
H     1.825000000    -6.193000000    -1.713000000
H     2.070000000    -4.710000000    -1.889000000
O     1.909000000    -2.692000000     5.146000000
H     2.315000000    -2.897000000     4.303000000
H     1.497000000    -1.839000000     5.012000000
O    -1.831000000    -0.784000000     4.165000000
H    -1.999000000    -1.585000000     3.669000000
H    -0.928000000    -0.875000000     4.470000000
O     5.833000000    -6.348000000     1.698000000
H     5.509000000    -5.698000000     1.074000000
H     6.129000000    -5.833000000     2.449000000
O     0.163000000     5.639000000    -0.676000000
H     0.376000000     4.845000000    -0.185000000
H     0.091000000     5.347000000    -1.584000000
O     3.551000000    -5.961000000     5.005000000
H     3.793000000    -5.423000000     4.250000000
H     3.580000000    -6.860000000     4.678000000
O    -0.127000000    -3.972000000    -4.233000000
H    -0.145000000    -4.157000000    -3.294000000
H    -0.128000000    -3.016000000    -4.288000000
O    -5.215000000     4.933000000    -1.320000000
H    -4.882000000     4.481000000    -2.095000000
H    -6.033000000     4.481000000    -1.112000000
O     4.937000000    -4.274000000    -0.596000000
H     4.075000000    -3.882000000    -0.741000000
H     5.399000000    -4.149000000    -1.425000000
O    -2.112000000    -3.257000000     2.766000000
H    -2.997000000    -3.606000000     2.659000000
H    -1.537000000    -3.984000000     2.525000000
O    -1.016000000     6.123000000     3.670000000
H    -1.777000000     5.544000000     3.633000000
H    -0.773000000     6.142000000     4.596000000
O     2.645000000     2.646000000    -4.039000000
H     2.897000000     3.480000000    -4.434000000
H     3.245000000     2.007000000    -4.424000000
O    -0.991000000    -3.603000000     5.631000000
H    -1.513000000    -3.592000000     4.828000000
H    -0.086000000    -3.520000000     5.330000000
O     3.194000000     1.401000000     2.627000000
H     2.344000000     1.832000000     2.719000000
H     2.997000000     0.578000000     2.180000000
O    -3.992000000    -3.327000000     0.229000000
H    -4.674000000    -2.989000000    -0.352000000
H    -3.251000000    -2.736000000     0.098000000
O     0.611000000    -6.306000000     3.721000000
H     0.325000000    -7.113000000     3.293000000
H     1.312000000    -5.973000000     3.160000000
O    -4.433000000     3.178000000    -3.378000000
H    -3.893000000     3.306000000    -4.158000000
H    -4.891000000     2.353000000    -3.537000000
O     4.038000000    -0.702000000     0.864000000
H     4.711000000    -1.160000000     1.368000000
H     3.563000000    -1.398000000     0.410000000
O     6.106000000    -2.801000000     1.597000000
H     6.209000000    -3.075000000     0.686000000
H     6.997000000    -2.620000000     1.896000000
O    -4.025000000     6.695000000     1.863000000
H    -3.828000000     5.931000000     2.406000000
H    -3.315000000     6.722000000     1.221000000
O     0.238000000     2.005000000    -5.420000000
H     1.075000000     2.090000000    -4.965000000
H    -0.413000000     2.291000000    -4.779000000
O    -1.438000000    -4.223000000    -1.653000000
H    -1.041000000    -4.582000000    -0.860000000
H    -1.489000000    -3.281000000    -1.489000000
O     2.835000000    -1.301000000    -6.576000000
H     2.211000000    -0.902000000    -7.183000000
H     3.119000000    -0.579000000    -6.016000000
O     5.814000000    -4.182000000    -3.220000000
H     5.461000000    -5.043000000    -3.444000000
H     6.506000000    -4.033000000    -3.865000000
O     4.324000000    -0.040000000    -4.654000000
H     4.889000000    -0.509000000    -5.269000000
H     4.098000000    -0.692000000    -3.991000000
O    -5.293000000    -2.518000000     2.989000000
H    -4.934000000    -1.635000000     3.083000000
H    -5.122000000    -2.749000000     2.075000000
O    -1.805000000     7.779000000    -0.560000000
H    -1.186000000     7.056000000    -0.461000000
H    -1.393000000     8.361000000    -1.199000000
O    -4.815000000     0.129000000     3.866000000
H    -3.953000000     0.405000000     4.176000000
H    -5.353000000     0.089000000     4.657000000
O    -2.232000000    -1.513000000    -0.908000000
H    -1.632000000    -1.049000000    -0.323000000
H    -2.823000000    -0.833000000    -1.232000000
O     0.909000000    -0.120000000     4.725000000
H     1.641000000     0.187000000     5.260000000
H     0.787000000     0.567000000     4.070000000
O     2.457000000     3.661000000    -1.210000000
H     2.549000000     2.742000000    -0.957000000
H     2.411000000     3.642000000    -2.166000000
O     3.708000000    -3.257000000     3.020000000
H     4.571000000    -3.124000000     2.629000000
H     3.120000000    -3.363000000     2.272000000
O    -4.438000000    -0.167000000    -1.690000000
H    -4.519000000     0.248000000    -0.831000000
H    -5.302000000    -0.062000000    -2.089000000
O    -0.496000000    -1.017000000    -4.052000000
H    -0.250000000    -0.416000000    -4.755000000
H    -1.225000000    -0.582000000    -3.609000000
O    -4.595000000     0.299000000     1.035000000
H    -4.748000000     0.052000000     1.946000000
H    -4.641000000     1.256000000     1.035000000
O     0.579000000     2.458000000     3.539000000
H     0.401000000     3.177000000     2.932000000
H    -0.092000000     2.544000000     4.216000000
O    -4.594000000     3.404000000     1.175000000
H    -5.523000000     3.634000000     1.215000000
H    -4.308000000     3.710000000     0.315000000
O     2.478000000    -5.671000000     1.567000000
H     3.008000000    -6.026000000     0.854000000
H     2.219000000    -4.801000000     1.264000000
O     1.397000000     4.327000000     1.426000000
H     1.804000000     5.184000000     1.553000000
H     1.835000000     3.966000000     0.655000000
O     4.574000000    -6.560000000    -3.852000000
H     4.830000000    -7.378000000    -3.425000000
H     3.810000000    -6.261000000    -3.358000000
O    -0.182000000     4.918000000    -3.130000000
H    -1.047000000     5.182000000    -3.443000000
H     0.404000000     5.093000000    -3.867000000
O    -3.075000000     4.405000000     3.168000000
H    -2.761000000     3.680000000     3.708000000
H    -3.540000000     3.981000000     2.446000000
O    -1.986000000     2.151000000     4.432000000
H    -1.806000000     1.256000000     4.145000000
H    -1.755000000     2.156000000     5.361000000
