144
-2813.27139
O     1.121000000    -4.040000000    -1.076000000
H     0.444000000    -3.775000000    -1.699000000
H     1.570000000    -4.768000000    -1.505000000
O     3.846000000    -3.528000000     3.968000000
H     3.190000000    -4.080000000     4.393000000
H     3.922000000    -3.884000000     3.083000000
O    -2.468000000     4.296000000    -1.252000000
H    -1.560000000     4.432000000    -0.983000000
H    -2.412000000     3.679000000    -1.982000000
O     4.091000000    -0.564000000     1.053000000
H     4.623000000    -0.023000000     0.468000000
H     3.578000000     0.065000000     1.560000000
O     1.155000000     1.803000000    -4.685000000
H     0.777000000     2.583000000    -4.280000000
H     0.617000000     1.651000000    -5.462000000
O    -0.688000000    -4.224000000    -5.165000000
H     0.240000000    -4.428000000    -5.282000000
H    -0.775000000    -3.321000000    -5.470000000
O     1.663000000     0.721000000     4.969000000
H     2.429000000     0.307000000     5.365000000
H     1.844000000     0.712000000     4.029000000
O     3.204000000     4.895000000     0.979000000
H     2.768000000     4.175000000     1.434000000
H     2.669000000     5.045000000     0.200000000
O     3.814000000     4.704000000     5.055000000
H     2.956000000     4.826000000     4.649000000
H     3.739000000     3.875000000     5.528000000
O    -5.916000000    -5.151000000    -0.024000000
H    -5.442000000    -5.092000000    -0.853000000
H    -6.816000000    -5.358000000    -0.276000000
O     1.278000000     3.844000000     4.327000000
H     1.061000000     2.993000000     4.706000000
H     1.661000000     3.636000000     3.475000000
O    -4.436000000    -4.893000000    -2.333000000
H    -3.743000000    -5.463000000    -2.668000000
H    -4.209000000    -4.023000000    -2.661000000
O     1.265000000     7.801000000     2.543000000
H     0.951000000     7.291000000     3.289000000
H     1.811000000     8.484000000     2.932000000
O     4.378000000     0.748000000     6.749000000
H     5.190000000     0.289000000     6.533000000
H     4.654000000     1.469000000     7.316000000
O    -4.742000000     1.595000000    -4.017000000
H    -5.019000000     0.714000000    -3.767000000
H    -5.377000000     2.175000000    -3.597000000
O    -4.407000000    -4.075000000     1.974000000
H    -4.469000000    -4.782000000     2.616000000
H    -4.751000000    -4.455000000     1.166000000
O    -6.270000000     3.050000000    -1.463000000
H    -7.057000000     2.508000000    -1.524000000
H    -5.657000000     2.525000000    -0.947000000
O     5.418000000     1.623000000     2.975000000
H     5.398000000     0.748000000     3.362000000
H     4.504000000     1.813000000     2.765000000
O    -2.481000000    -5.972000000    -4.183000000
H    -1.886000000    -5.292000000    -4.498000000
H    -3.138000000    -6.054000000    -4.874000000
O     8.283000000     2.037000000     3.158000000
H     7.366000000     2.114000000     2.896000000
H     8.758000000     2.583000000     2.532000000
O    -4.914000000    -1.508000000    -1.532000000
H    -5.024000000    -1.220000000    -0.626000000
H    -5.271000000    -2.396000000    -1.546000000
O    -3.532000000    -1.635000000     3.408000000
H    -3.517000000    -2.420000000     2.861000000
H    -3.384000000    -0.914000000     2.796000000
O     5.882000000     3.182000000     0.802000000
H     5.803000000     3.602000000     1.658000000
H     5.599000000     2.280000000     0.950000000
O    -3.063000000    -2.456000000    -4.553000000
H    -2.241000000    -1.971000000    -4.636000000
H    -2.845000000    -3.345000000    -4.831000000
O     5.170000000     6.649000000    -0.482000000
H     4.609000000     7.413000000    -0.347000000
H     4.628000000     5.905000000    -0.220000000
O     5.757000000     0.472000000    -0.873000000
H     6.292000000     1.132000000    -1.314000000
H     5.423000000    -0.078000000    -1.582000000
O    -0.280000000    -1.233000000    -4.642000000
H     0.523000000    -1.088000000    -4.142000000
H    -0.791000000    -0.433000000    -4.512000000
O     0.407000000     6.696000000     4.918000000
H     1.103000000     7.035000000     5.482000000
H     0.616000000     5.768000000     4.812000000
O     4.537000000     3.385000000    -1.422000000
H     3.733000000     2.867000000    -1.387000000
H     4.783000000     3.506000000    -0.505000000
O     5.073000000    -1.102000000     3.381000000
H     4.714000000    -0.880000000     2.521000000
H     4.537000000    -1.836000000     3.682000000
O     2.675000000     1.551000000    -2.492000000
H     2.930000000     0.628000000    -2.520000000
H     2.035000000     1.643000000    -3.198000000
O     1.715000000    -5.856000000     3.154000000
H     0.945000000    -6.246000000     2.741000000
H     2.046000000    -5.234000000     2.506000000
O     0.070000000    -1.167000000     6.322000000
H     0.106000000    -0.335000000     5.851000000
H    -0.771000000    -1.550000000     6.070000000
O    -4.931000000     1.083000000    -0.002000000
H    -5.799000000     1.134000000     0.398000000
H    -4.335000000     1.402000000     0.676000000
O    -1.983000000     0.938000000    -4.399000000
H    -2.859000000     0.998000000    -4.017000000
H    -1.877000000     1.755000000    -4.886000000
O     2.107000000    -1.357000000    -2.926000000
H     1.577000000    -1.394000000    -2.130000000
H     2.720000000    -2.088000000    -2.839000000
O    -3.041000000    -7.055000000     0.622000000
H    -3.808000000    -6.483000000     0.603000000
H    -2.962000000    -7.378000000    -0.276000000
O     2.903000000    -4.334000000     0.933000000
H     2.882000000    -5.186000000     0.499000000
H     2.362000000    -3.770000000     0.380000000
O     1.416000000     5.638000000    -1.192000000
H     0.610000000     5.570000000    -1.705000000
H     1.354000000     6.491000000    -0.761000000
O     5.800000000     4.550000000     3.203000000
H     5.014000000     4.875000000     3.642000000
H     6.417000000     4.376000000     3.915000000
O    -5.481000000    -1.398000000    -4.091000000
H    -4.767000000    -2.017000000    -4.241000000
H    -5.435000000    -1.200000000    -3.156000000
O    -3.243000000     2.966000000     1.297000000
H    -2.421000000     3.374000000     1.569000000
H    -3.306000000     3.155000000     0.361000000
O     2.542000000     4.747000000    -4.119000000
H     3.330000000     4.213000000    -4.022000000
H     2.301000000     4.983000000    -3.223000000
O    -0.349000000     3.996000000    -4.753000000
H     0.405000000     4.347000000    -5.227000000
H    -0.811000000     4.770000000    -4.432000000
O     0.509000000    -1.374000000    -7.194000000
H     1.407000000    -1.535000000    -6.904000000
H     0.009000000    -1.278000000    -6.383000000
O    -4.932000000     0.103000000    -6.640000000
H    -5.237000000     1.000000000    -6.507000000
H    -4.477000000    -0.119000000    -5.827000000
O     2.306000000    -2.865000000     6.218000000
H     1.777000000    -2.098000000     5.996000000
H     2.942000000    -2.541000000     6.855000000
O    -0.775000000     4.035000000     1.741000000
H    -0.435000000     4.830000000     2.151000000
H    -0.022000000     3.446000000     1.700000000
