144
-2820.68175
O     0.573000000    -4.915000000     0.319000000
H     0.450000000    -4.884000000    -0.630000000
H     1.483000000    -5.188000000     0.433000000
O     2.139000000    -1.451000000     6.243000000
H     2.276000000    -2.255000000     5.742000000
H     2.892000000    -0.903000000     6.027000000
O    -4.152000000     1.694000000    -4.740000000
H    -4.056000000     1.835000000    -3.798000000
H    -4.965000000     2.144000000    -4.968000000
O     3.523000000    -2.057000000     2.987000000
H     4.049000000    -2.804000000     2.700000000
H     2.861000000    -2.438000000     3.563000000
O    -0.300000000     7.437000000    -1.531000000
H    -0.960000000     7.228000000    -0.871000000
H     0.120000000     6.599000000    -1.725000000
O    -0.920000000     3.207000000    -3.534000000
H    -1.194000000     2.410000000    -3.080000000
H    -1.728000000     3.565000000    -3.899000000
O    -3.811000000     1.384000000     0.651000000
H    -3.182000000     1.743000000     1.275000000
H    -3.914000000     0.469000000     0.913000000
O     0.527000000     5.056000000    -2.561000000
H     1.454000000     4.865000000    -2.706000000
H     0.080000000     4.230000000    -2.745000000
O    -3.646000000    -6.501000000     2.819000000
H    -4.527000000    -6.127000000     2.785000000
H    -3.073000000    -5.788000000     2.537000000
O     6.520000000     3.643000000    -1.139000000
H     5.733000000     3.437000000    -1.644000000
H     6.291000000     4.432000000    -0.649000000
O     0.986000000     5.368000000     0.709000000
H     1.553000000     4.603000000     0.806000000
H     0.354000000     5.115000000     0.037000000
O     5.081000000     6.604000000     2.461000000
H     4.514000000     5.845000000     2.601000000
H     4.699000000     7.052000000     1.706000000
O     3.855000000     4.943000000    -0.859000000
H     4.110000000     5.643000000    -0.257000000
H     3.358000000     4.331000000    -0.318000000
O     2.053000000    -1.666000000    -2.122000000
H     1.440000000    -2.397000000    -2.045000000
H     2.553000000    -1.685000000    -1.306000000
O     0.342000000     0.438000000     5.457000000
H     0.882000000    -0.028000000     6.095000000
H     0.915000000     1.123000000     5.113000000
O    -3.707000000    -4.769000000    -3.327000000
H    -2.897000000    -5.236000000    -3.123000000
H    -4.176000000    -5.353000000    -3.923000000
O    -1.208000000    -2.676000000     2.992000000
H    -1.388000000    -1.784000000     2.693000000
H    -1.103000000    -2.594000000     3.940000000
O    -4.507000000    -1.339000000     1.112000000
H    -3.819000000    -1.998000000     1.206000000
H    -5.265000000    -1.829000000     0.793000000
O     2.481000000     2.066000000     4.573000000
H     3.039000000     1.335000000     4.840000000
H     2.613000000     2.134000000     3.627000000
O    -0.051000000    -2.837000000    -4.613000000
H    -0.653000000    -2.223000000    -5.034000000
H     0.651000000    -2.285000000    -4.268000000
O    -4.179000000     2.041000000    -1.974000000
H    -4.883000000     2.666000000    -1.800000000
H    -3.957000000     1.685000000    -1.114000000
O     0.784000000    -5.477000000     3.153000000
H     0.564000000    -6.408000000     3.170000000
H     0.701000000    -5.229000000     2.232000000
O    -4.609000000     4.000000000     0.511000000
H    -4.521000000     3.047000000     0.533000000
H    -5.197000000     4.170000000    -0.225000000
O     3.139000000     6.270000000    -3.128000000
H     2.779000000     7.105000000    -2.827000000
H     3.611000000     5.925000000    -2.370000000
O    -2.154000000     0.673000000     4.137000000
H    -1.948000000     1.568000000     3.868000000
H    -1.379000000     0.383000000     4.618000000
O    -1.111000000    -2.119000000     5.650000000
H    -1.550000000    -1.858000000     6.460000000
H    -0.349000000    -1.543000000     5.596000000
O     2.605000000     2.605000000    -2.235000000
H     3.512000000     2.870000000    -2.387000000
H     2.452000000     2.792000000    -1.309000000
O     4.744000000     1.011000000    -0.876000000
H     3.826000000     0.933000000    -1.136000000
H     4.715000000     1.127000000     0.074000000
O    -6.901000000    -2.610000000     0.511000000
H    -7.727000000    -2.977000000     0.826000000
H    -6.490000000    -3.325000000     0.026000000
O     2.144000000     0.417000000    -3.913000000
H     2.122000000     1.281000000    -3.501000000
H     2.272000000    -0.191000000    -3.185000000
O     5.012000000     0.571000000     2.378000000
H     4.217000000     1.083000000     2.229000000
H     4.767000000    -0.062000000     3.053000000
O     4.336000000    -0.059000000     5.279000000
H     5.009000000    -0.738000000     5.229000000
H     4.786000000     0.695000000     5.660000000
O     3.835000000     4.326000000     2.722000000
H     3.465000000     4.190000000     3.595000000
H     3.556000000     3.559000000     2.222000000
O    -1.708000000     3.511000000     2.227000000
H    -2.221000000     3.963000000     2.897000000
H    -1.966000000     3.928000000     1.405000000
O    -6.837000000    -0.620000000    -2.699000000
H    -6.648000000    -0.520000000    -1.766000000
H    -7.789000000    -0.708000000    -2.742000000
O     3.653000000    -1.851000000     0.069000000
H     4.104000000    -1.015000000    -0.051000000
H     3.601000000    -1.960000000     1.018000000
O     2.245000000    -3.878000000     5.088000000
H     2.330000000    -4.625000000     5.680000000
H     1.526000000    -4.115000000     4.503000000
O    -1.623000000    -5.101000000     1.542000000
H    -1.342000000    -4.444000000     2.179000000
H    -0.860000000    -5.228000000     0.977000000
O    -4.606000000    -0.982000000    -4.273000000
H    -5.292000000    -0.642000000    -3.699000000
H    -4.439000000    -0.272000000    -4.893000000
O     0.730000000     5.791000000     3.542000000
H     0.921000000     5.717000000     2.607000000
H     0.058000000     6.470000000     3.597000000
O    -1.981000000    -0.966000000    -5.620000000
H    -1.300000000    -0.316000000    -5.452000000
H    -2.459000000    -1.032000000    -4.793000000
O    -1.688000000    -6.416000000    -2.885000000
H    -0.926000000    -6.985000000    -2.770000000
H    -2.236000000    -6.593000000    -2.121000000
O     0.891000000    -4.436000000    -2.383000000
H     0.590000000    -4.114000000    -3.232000000
H     1.526000000    -5.120000000    -2.597000000
O    -3.312000000    -6.289000000    -0.472000000
H    -4.197000000    -5.981000000    -0.279000000
H    -2.771000000    -5.913000000     0.222000000
O    -5.554000000    -4.175000000    -1.177000000
H    -4.902000000    -3.993000000    -1.854000000
H    -6.063000000    -4.906000000    -1.524000000
O    -2.194000000     5.237000000    -0.235000000
H    -2.337000000     6.033000000     0.276000000
H    -3.052000000     4.814000000    -0.264000000
O     7.247000000     2.376000000     1.540000000
H     6.385000000     1.966000000     1.613000000
H     7.149000000     3.013000000     0.833000000
O    -0.043000000     3.335000000     5.121000000
H    -0.087000000     3.935000000     4.377000000
H     0.863000000     3.026000000     5.126000000
