144
-2847.45692
O     0.288000000    -6.389000000    -1.134000000
H     0.687000000    -5.534000000    -0.971000000
H     0.934000000    -7.019000000    -0.815000000
O     0.778000000    -3.912000000     3.371000000
H     1.263000000    -3.869000000     4.195000000
H     1.334000000    -4.434000000     2.793000000
O    -2.257000000     0.865000000    -4.835000000
H    -1.655000000     1.407000000    -4.325000000
H    -2.777000000     0.402000000    -4.178000000
O    -2.165000000     6.692000000     1.381000000
H    -1.922000000     5.863000000     0.970000000
H    -2.552000000     7.206000000     0.672000000
O     4.828000000     1.220000000     4.448000000
H     4.508000000     2.007000000     4.889000000
H     4.406000000     0.497000000     4.913000000
O     3.490000000    -1.606000000     3.364000000
H     3.329000000    -2.374000000     2.815000000
H     3.737000000    -0.918000000     2.747000000
O     1.507000000     3.827000000    -5.376000000
H     0.649000000     3.597000000    -5.019000000
H     1.320000000     4.154000000    -6.256000000
O    -1.144000000     4.475000000     0.121000000
H    -1.470000000     3.748000000     0.651000000
H    -0.374000000     4.122000000    -0.324000000
O     2.731000000     4.944000000    -2.336000000
H     2.230000000     4.515000000    -1.642000000
H     2.399000000     4.557000000    -3.145000000
O     1.885000000     5.794000000     0.649000000
H     1.569000000     5.079000000     0.097000000
H     1.096000000     6.280000000     0.887000000
O    -1.754000000    -3.431000000     5.183000000
H    -1.796000000    -2.601000000     5.659000000
H    -2.458000000    -3.372000000     4.537000000
O     5.357000000     4.791000000    -1.010000000
H     4.566000000     5.078000000    -1.465000000
H     5.059000000     4.090000000    -0.430000000
O    -5.096000000    -3.059000000     0.599000000
H    -5.726000000    -3.272000000    -0.089000000
H    -5.030000000    -3.859000000     1.120000000
O     1.813000000    -4.186000000    -0.731000000
H     2.421000000    -4.168000000     0.008000000
H     1.737000000    -3.271000000    -1.001000000
O    -0.436000000    -1.340000000     3.689000000
H     0.312000000    -1.132000000     4.249000000
H    -0.317000000    -2.262000000     3.464000000
O     4.034000000    -3.632000000     1.064000000
H     4.798000000    -3.118000000     1.325000000
H     4.074000000    -4.417000000     1.610000000
O    -0.792000000     3.329000000    -3.574000000
H    -1.474000000     3.283000000    -2.903000000
H    -1.071000000     4.040000000    -4.151000000
O    -0.905000000    -4.591000000    -3.937000000
H    -0.802000000    -3.714000000    -3.568000000
H    -0.013000000    -4.930000000    -4.002000000
O    -1.486000000    -5.102000000     2.594000000
H    -2.274000000    -4.698000000     2.957000000
H    -0.764000000    -4.601000000     2.973000000
O    -7.046000000    -1.386000000    -1.224000000
H    -6.253000000    -1.622000000    -1.706000000
H    -7.748000000    -1.858000000    -1.671000000
O    -5.303000000    -0.799000000     2.259000000
H    -4.426000000    -0.472000000     2.460000000
H    -5.151000000    -1.592000000     1.746000000
O     4.095000000     0.669000000     1.936000000
H     4.589000000     0.959000000     2.702000000
H     3.554000000     1.423000000     1.700000000
O     1.869000000    -3.037000000    -4.898000000
H     2.535000000    -3.092000000    -4.213000000
H     1.264000000    -2.361000000    -4.592000000
O    -3.268000000     3.926000000    -2.159000000
H    -4.184000000     3.695000000    -2.007000000
H    -3.058000000     4.545000000    -1.459000000
O    -5.247000000     1.457000000    -5.389000000
H    -4.632000000     1.267000000    -6.097000000
H    -4.713000000     1.440000000    -4.596000000
O    -2.815000000     0.270000000     2.964000000
H    -2.167000000    -0.345000000     3.308000000
H    -2.308000000     1.051000000     2.741000000
O     1.983000000     8.184000000    -1.993000000
H     2.021000000     7.244000000    -2.174000000
H     2.832000000     8.517000000    -2.283000000
O     4.047000000     1.134000000    -3.397000000
H     4.663000000     0.418000000    -3.550000000
H     4.551000000     1.785000000    -2.909000000
O    -0.407000000    -1.456000000    -4.311000000
H    -1.142000000    -1.083000000    -4.798000000
H     0.174000000    -0.714000000    -4.146000000
O    -1.956000000    -7.964000000     1.311000000
H    -2.657000000    -8.068000000     1.954000000
H    -1.722000000    -7.037000000     1.360000000
O    -4.088000000    -3.435000000     3.793000000
H    -4.491000000    -4.298000000     3.697000000
H    -4.735000000    -2.828000000     3.433000000
O     2.104000000    -1.617000000    -2.235000000
H     1.901000000    -0.988000000    -1.542000000
H     2.107000000    -1.097000000    -3.038000000
O     5.550000000     1.390000000    -0.573000000
H     6.088000000     1.926000000     0.009000000
H     5.063000000     0.812000000     0.015000000
O     4.780000000     3.538000000     1.556000000
H     4.771000000     4.243000000     2.204000000
H     3.862000000     3.281000000     1.469000000
O     3.762000000    -0.947000000     5.971000000
H     3.675000000    -1.315000000     5.091000000
H     4.180000000    -1.640000000     6.481000000
O     1.165000000     2.336000000     3.739000000
H     1.507000000     2.214000000     2.854000000
H     1.177000000     1.460000000     4.124000000
O    -4.506000000     0.526000000    -2.769000000
H    -4.834000000     1.112000000    -2.086000000
H    -4.419000000    -0.323000000    -2.335000000
O     1.314000000     0.741000000    -3.920000000
H     2.178000000     0.942000000    -3.560000000
H     0.811000000     1.546000000    -3.796000000
O    -2.421000000    -5.699000000    -0.533000000
H    -2.208000000    -5.257000000     0.290000000
H    -1.589000000    -5.743000000    -1.003000000
O    -5.146000000    -2.361000000    -2.811000000
H    -4.350000000    -2.822000000    -2.548000000
H    -5.233000000    -2.545000000    -3.746000000
O    -3.576000000    -4.619000000    -2.728000000
H    -3.309000000    -5.075000000    -1.930000000
H    -2.998000000    -4.967000000    -3.407000000
O     1.043000000    -0.198000000     5.806000000
H     0.596000000     0.373000000     6.431000000
H     1.974000000    -0.062000000     5.982000000
O    -4.771000000     1.096000000     0.277000000
H    -5.036000000     0.278000000     0.698000000
H    -5.590000000     1.575000000     0.149000000
O    -2.418000000     2.639000000     1.588000000
H    -3.213000000     2.870000000     2.068000000
H    -2.665000000     1.874000000     1.068000000
O     7.379000000     3.549000000     1.586000000
H     7.644000000     4.002000000     0.785000000
H     6.423000000     3.583000000     1.575000000
O     4.612000000     5.292000000     3.921000000
H     3.679000000     5.274000000     3.710000000
H     4.930000000     6.107000000     3.533000000
O     2.000000000     5.337000000     3.850000000
H     1.383000000     4.669000000     4.152000000
H     1.734000000     5.518000000     2.949000000
O     4.504000000     6.988000000     0.893000000
H     3.656000000     6.546000000     0.903000000
H     5.055000000     6.436000000     0.338000000
