144
-2824.89229
O     1.047000000    -5.736000000    -1.714000000
H     1.785000000    -5.357000000    -2.192000000
H     1.433000000    -6.445000000    -1.200000000
O     1.423000000    -4.435000000     2.027000000
H     1.689000000    -4.440000000     1.107000000
H     2.169000000    -4.052000000     2.489000000
O    -1.513000000     1.317000000    -6.193000000
H    -1.395000000     2.267000000    -6.201000000
H    -2.399000000     1.189000000    -5.854000000
O    -0.136000000     7.318000000    -3.686000000
H     0.649000000     7.272000000    -3.142000000
H    -0.703000000     6.625000000    -3.348000000
O     4.866000000    -1.637000000     1.405000000
H     4.308000000    -1.602000000     2.182000000
H     5.754000000    -1.517000000     1.743000000
O    -4.221000000    -1.180000000     3.551000000
H    -3.993000000    -0.535000000     4.221000000
H    -4.950000000    -0.782000000     3.075000000
O    -5.994000000    -0.632000000    -1.722000000
H    -6.459000000    -0.118000000    -2.382000000
H    -5.161000000    -0.856000000    -2.136000000
O     3.644000000    -1.662000000     3.973000000
H     3.393000000    -2.581000000     4.064000000
H     4.479000000    -1.594000000     4.435000000
O     3.117000000     4.719000000    -2.597000000
H     2.412000000     4.395000000    -2.036000000
H     3.205000000     4.054000000    -3.279000000
O    -0.126000000     4.791000000     0.127000000
H     0.501000000     4.391000000    -0.477000000
H    -0.001000000     4.318000000     0.949000000
O     6.155000000     0.591000000     1.096000000
H     6.285000000     0.918000000     0.206000000
H     5.492000000    -0.094000000     1.005000000
O    -5.785000000    -3.544000000     0.381000000
H    -6.320000000    -4.168000000     0.872000000
H    -5.006000000    -4.041000000     0.132000000
O    -6.335000000     1.236000000     2.715000000
H    -6.319000000     0.882000000     1.826000000
H    -6.771000000     0.560000000     3.234000000
O     3.322000000    -3.665000000     0.147000000
H     3.922000000    -2.926000000     0.248000000
H     3.101000000    -3.669000000    -0.784000000
O    -1.055000000    -1.364000000     4.438000000
H    -0.776000000    -0.543000000     4.033000000
H    -0.241000000    -1.781000000     4.720000000
O     0.673000000     2.944000000    -3.800000000
H     0.680000000     3.296000000    -2.910000000
H     0.195000000     3.597000000    -4.312000000
O    -0.852000000    -3.715000000    -2.589000000
H    -0.627000000    -4.299000000    -1.864000000
H    -0.322000000    -2.932000000    -2.440000000
O    -1.435000000    -5.041000000     2.141000000
H    -1.895000000    -4.353000000     2.622000000
H    -0.507000000    -4.868000000     2.304000000
O     3.629000000     2.514000000     2.602000000
H     3.117000000     1.818000000     3.013000000
H     3.053000000     2.869000000     1.925000000
O     4.884000000    -2.203000000    -2.241000000
H     4.535000000    -1.321000000    -2.372000000
H     5.422000000    -2.366000000    -3.016000000
O     6.639000000     2.899000000    -3.491000000
H     7.331000000     3.553000000    -3.392000000
H     6.315000000     2.756000000    -2.602000000
O    -1.427000000     5.176000000    -2.354000000
H    -2.293000000     4.769000000    -2.323000000
H    -1.034000000     4.966000000    -1.507000000
O    -3.700000000     3.371000000    -2.297000000
H    -3.807000000     2.593000000    -2.845000000
H    -4.405000000     3.309000000    -1.653000000
O    -5.644000000    -0.843000000     1.004000000
H    -5.418000000    -1.758000000     0.836000000
H    -5.846000000    -0.484000000     0.140000000
O     1.886000000     7.040000000    -2.053000000
H     2.480000000     6.323000000    -2.272000000
H     1.974000000     7.143000000    -1.105000000
O     3.684000000     0.408000000    -2.514000000
H     3.600000000     0.957000000    -3.293000000
H     3.839000000     1.027000000    -1.800000000
O    -1.619000000    -0.234000000    -3.938000000
H    -1.007000000     0.497000000    -4.030000000
H    -1.124000000    -0.902000000    -3.463000000
O    -2.845000000    -3.439000000     4.009000000
H    -2.213000000    -2.748000000     4.208000000
H    -3.586000000    -2.980000000     3.614000000
O    -4.560000000     3.289000000     1.372000000
H    -5.119000000     2.757000000     1.940000000
H    -3.693000000     2.892000000     1.451000000
O     1.305000000    -1.958000000    -2.722000000
H     1.642000000    -1.346000000    -2.068000000
H     2.002000000    -2.019000000    -3.375000000
O     5.476000000     2.585000000    -1.005000000
H     5.978000000     2.930000000    -0.266000000
H     4.561000000     2.737000000    -0.765000000
O     3.044000000     5.142000000     0.276000000
H     2.813000000     4.279000000    -0.068000000
H     3.682000000     5.487000000    -0.350000000
O     5.555000000     6.257000000    -2.105000000
H     5.543000000     6.790000000    -2.900000000
H     4.810000000     5.664000000    -2.202000000
O     2.126000000     0.816000000     3.896000000
H     2.243000000    -0.134000000     3.862000000
H     1.199000000     0.950000000     3.700000000
O     0.232000000     4.097000000     2.680000000
H     0.409000000     3.195000000     2.947000000
H    -0.090000000     4.524000000     3.474000000
O    -3.903000000     0.802000000    -3.566000000
H    -4.254000000     0.371000000    -4.346000000
H    -3.003000000     0.480000000    -3.500000000
O     6.412000000     1.928000000     3.338000000
H     6.631000000     1.234000000     2.717000000
H     5.530000000     2.205000000     3.086000000
O     3.260000000     2.269000000    -4.273000000
H     3.308000000     2.821000000    -5.054000000
H     2.323000000     2.160000000    -4.113000000
O    -1.372000000    -6.226000000    -0.161000000
H    -1.403000000    -5.870000000     0.727000000
H    -0.472000000    -6.076000000    -0.449000000
O    -1.322000000     7.099000000     0.926000000
H    -2.247000000     6.877000000     0.822000000
H    -0.865000000     6.260000000     0.858000000
O    -4.290000000    -5.870000000    -0.462000000
H    -4.450000000    -6.423000000     0.303000000
H    -3.336000000    -5.829000000    -0.533000000
O     0.916000000    -2.722000000     5.454000000
H     1.804000000    -3.013000000     5.663000000
H     0.363000000    -3.155000000     6.104000000
O     1.686000000     1.789000000     6.412000000
H     1.494000000     0.941000000     6.813000000
H     1.862000000     1.586000000     5.494000000
O    -6.961000000    -2.859000000     2.925000000
H    -7.035000000    -2.413000000     2.081000000
H    -7.164000000    -2.182000000     3.571000000
O    -2.915000000     0.760000000     1.873000000
H    -3.319000000    -0.024000000     2.245000000
H    -2.739000000     0.529000000     0.961000000
O    -0.632000000     1.134000000     3.819000000
H    -1.351000000     1.261000000     3.200000000
H    -0.840000000     1.715000000     4.551000000
O    -2.568000000    -3.872000000    -4.661000000
H    -3.413000000    -3.850000000    -4.210000000
H    -1.941000000    -4.122000000    -3.982000000
O     2.608000000     6.027000000     2.765000000
H     1.978000000     5.320000000     2.910000000
H     3.026000000     5.808000000     1.932000000
