144
-2867.36939
O     2.850000000    -3.376000000    -0.287000000
H     2.668000000    -2.965000000    -1.133000000
H     3.603000000    -3.943000000    -0.454000000
O    -4.967000000     0.940000000    -0.690000000
H    -5.585000000     1.597000000    -0.371000000
H    -5.456000000     0.451000000    -1.351000000
O    -4.938000000    -0.869000000     1.626000000
H    -4.308000000    -0.312000000     2.082000000
H    -5.049000000    -0.455000000     0.770000000
O     2.543000000     5.788000000     0.128000000
H     2.278000000     4.870000000     0.197000000
H     2.545000000     5.966000000    -0.813000000
O    -2.432000000     2.038000000    -0.133000000
H    -3.346000000     1.848000000    -0.344000000
H    -1.979000000     1.205000000    -0.262000000
O    -6.188000000    -4.000000000    -1.501000000
H    -6.936000000    -3.436000000    -1.304000000
H    -5.715000000    -4.069000000    -0.672000000
O     3.866000000     0.804000000    -2.792000000
H     4.646000000     1.030000000    -3.299000000
H     3.526000000     0.016000000    -3.216000000
O     6.977000000     1.295000000     3.325000000
H     6.176000000     1.741000000     3.050000000
H     7.166000000     1.654000000     4.191000000
O    -2.907000000    -4.887000000     2.664000000
H    -3.142000000    -5.742000000     2.304000000
H    -1.968000000    -4.950000000     2.838000000
O    -3.065000000    -3.408000000     5.567000000
H    -3.167000000    -2.851000000     4.796000000
H    -2.537000000    -4.146000000     5.261000000
O    -2.323000000    -3.080000000    -5.100000000
H    -2.901000000    -3.573000000    -5.683000000
H    -2.914000000    -2.663000000    -4.473000000
O     0.034000000     4.738000000    -1.446000000
H     0.587000000     4.295000000    -0.803000000
H     0.641000000     5.022000000    -2.130000000
O     1.977000000     4.071000000    -5.404000000
H     1.704000000     4.777000000    -4.819000000
H     1.252000000     3.446000000    -5.380000000
O     2.007000000     6.618000000    -2.686000000
H     1.314000000     7.252000000    -2.873000000
H     2.820000000     7.103000000    -2.826000000
O    -4.786000000    -3.533000000     1.044000000
H    -4.788000000    -2.580000000     1.140000000
H    -4.164000000    -3.839000000     1.703000000
O     4.709000000     2.998000000     2.636000000
H     4.950000000     3.808000000     2.187000000
H     3.887000000     2.731000000     2.225000000
O     3.924000000    -2.203000000     2.336000000
H     4.672000000    -1.607000000     2.372000000
H     3.671000000    -2.213000000     1.413000000
O     4.659000000     4.278000000    -4.263000000
H     3.902000000     4.303000000    -4.849000000
H     4.302000000     3.989000000    -3.423000000
O     6.425000000     4.478000000    -1.254000000
H     5.555000000     4.116000000    -1.420000000
H     6.758000000     4.708000000    -2.122000000
O     1.966000000     7.500000000     3.001000000
H     1.706000000     6.585000000     2.891000000
H     2.351000000     7.537000000     3.877000000
O    -3.282000000     1.109000000     2.960000000
H    -3.743000000     1.948000000     2.960000000
H    -2.461000000     1.288000000     2.501000000
O    -0.048000000    -3.866000000    -3.865000000
H    -0.903000000    -3.660000000    -4.243000000
H    -0.244000000    -4.454000000    -3.136000000
O    -0.433000000    -0.647000000    -5.400000000
H     0.467000000    -0.665000000    -5.075000000
H    -0.692000000    -1.567000000    -5.440000000
O    -4.725000000    -2.670000000    -3.459000000
H    -5.155000000    -3.255000000    -2.834000000
H    -5.368000000    -2.553000000    -4.158000000
O    -0.511000000     3.031000000    -4.929000000
H    -0.645000000     2.086000000    -4.852000000
H    -1.321000000     3.416000000    -4.594000000
O    -0.151000000    -4.995000000     3.472000000
H     0.229000000    -4.129000000     3.623000000
H     0.556000000    -5.501000000     3.074000000
O    -1.168000000     4.124000000     1.089000000
H    -1.746000000     3.395000000     0.865000000
H    -0.882000000     4.471000000     0.243000000
O     2.174000000    -2.418000000    -2.973000000
H     1.228000000    -2.519000000    -3.076000000
H     2.440000000    -1.885000000    -3.722000000
O     4.719000000     5.490000000     1.482000000
H     3.876000000     5.678000000     1.069000000
H     5.361000000     5.936000000     0.930000000
O     0.904000000     4.906000000     2.889000000
H     1.441000000     4.137000000     2.697000000
H     0.032000000     4.676000000     2.569000000
O     0.134000000     0.002000000     6.619000000
H     0.864000000    -0.440000000     6.186000000
H    -0.602000000    -0.103000000     6.016000000
O    -2.563000000     2.979000000    -3.008000000
H    -1.975000000     3.278000000    -2.314000000
H    -2.766000000     2.073000000    -2.777000000
O     3.807000000     3.417000000    -1.843000000
H     3.966000000     2.529000000    -2.164000000
H     3.156000000     3.308000000    -1.149000000
O     2.358000000    -5.365000000     1.738000000
H     2.777000000    -5.104000000     2.558000000
H     2.333000000    -4.563000000     1.215000000
O    -3.828000000     0.230000000    -3.579000000
H    -4.710000000     0.483000000    -3.849000000
H    -3.872000000    -0.720000000    -3.474000000
O    -3.539000000    -5.329000000    -1.277000000
H    -3.728000000    -4.514000000    -0.812000000
H    -2.584000000    -5.399000000    -1.258000000
O    -0.186000000    -5.142000000    -1.525000000
H     0.036000000    -5.951000000    -1.065000000
H     0.039000000    -4.445000000    -0.908000000
O     1.616000000    -2.922000000     3.680000000
H     1.372000000    -2.248000000     4.313000000
H     2.431000000    -2.602000000     3.292000000
O     2.320000000    -0.651000000    -4.920000000
H     2.569000000    -1.085000000    -5.736000000
H     2.623000000     0.251000000    -5.027000000
O    -0.495000000     2.034000000     3.507000000
H     0.046000000     2.029000000     4.297000000
H     0.133000000     2.096000000     2.787000000
O    -1.960000000     3.791000000     4.822000000
H    -1.439000000     4.349000000     5.400000000
H    -1.317000000     3.376000000     4.247000000
O     2.455000000    -1.142000000     5.615000000
H     2.526000000    -0.206000000     5.425000000
H     3.087000000    -1.292000000     6.318000000
O     0.518000000    -7.131000000     0.281000000
H     0.834000000    -6.574000000     0.992000000
H     1.257000000    -7.705000000     0.079000000
O    -2.379000000    -0.295000000     5.287000000
H    -2.425000000     0.298000000     4.537000000
H    -3.290000000    -0.416000000     5.553000000
O    -2.674000000     0.888000000    -5.992000000
H    -1.932000000     0.365000000    -6.295000000
H    -2.873000000     0.541000000    -5.122000000
O     2.152000000     1.404000000     4.378000000
H     2.321000000     1.748000000     3.501000000
H     2.760000000     1.880000000     4.943000000
O     3.637000000     3.572000000     5.721000000
H     4.101000000     3.756000000     4.904000000
H     3.828000000     4.326000000     6.280000000
O     0.053000000     2.724000000     6.411000000
H     0.483000000     2.990000000     7.223000000
H     0.272000000     1.797000000     6.316000000
