144
-2823.29773
O     0.678000000    -0.865000000    -6.219000000
H     0.574000000    -0.645000000    -5.294000000
H     0.394000000    -0.080000000    -6.687000000
O    -4.654000000     0.629000000     2.890000000
H    -4.424000000     0.171000000     3.699000000
H    -4.599000000    -0.042000000     2.210000000
O     6.391000000     4.487000000    -0.361000000
H     5.794000000     4.180000000     0.321000000
H     6.503000000     5.420000000    -0.179000000
O     2.421000000     6.075000000     1.029000000
H     2.154000000     5.370000000     0.438000000
H     3.364000000     6.157000000     0.893000000
O    -0.300000000    -5.381000000     2.665000000
H    -0.094000000    -5.820000000     1.840000000
H     0.383000000    -4.718000000     2.760000000
O     3.618000000     3.976000000     4.234000000
H     3.564000000     3.416000000     5.008000000
H     3.378000000     4.847000000     4.551000000
O    -1.094000000     2.174000000    -3.554000000
H    -0.480000000     2.521000000    -4.201000000
H    -0.818000000     1.266000000    -3.425000000
O     2.144000000    -4.660000000     0.085000000
H     2.411000000    -4.746000000    -0.831000000
H     1.655000000    -5.462000000     0.268000000
O    -3.918000000    -4.340000000    -0.900000000
H    -3.751000000    -4.617000000     0.001000000
H    -3.079000000    -3.993000000    -1.203000000
O    -5.026000000    -0.521000000    -1.396000000
H    -5.881000000    -0.395000000    -1.807000000
H    -4.532000000    -1.046000000    -2.025000000
O    -1.174000000    -4.544000000     5.094000000
H    -0.782000000    -4.833000000     4.270000000
H    -0.885000000    -3.637000000     5.191000000
O     6.914000000    -2.389000000    -2.798000000
H     7.553000000    -1.873000000    -3.290000000
H     6.492000000    -1.756000000    -2.217000000
O    -0.875000000     5.112000000     0.157000000
H    -1.384000000     4.569000000    -0.444000000
H    -0.027000000     4.673000000     0.217000000
O    -4.257000000    -2.302000000    -3.194000000
H    -4.836000000    -3.059000000    -3.289000000
H    -3.377000000    -2.655000000    -3.328000000
O     1.462000000    -3.149000000     2.317000000
H     2.375000000    -3.098000000     2.602000000
H     1.515000000    -3.323000000     1.377000000
O    -0.338000000     1.864000000     4.284000000
H     0.315000000     1.301000000     3.868000000
H     0.119000000     2.691000000     4.435000000
O     7.208000000     3.620000000     2.817000000
H     7.181000000     2.663000000     2.832000000
H     6.435000000     3.874000000     2.313000000
O     6.233000000     0.907000000     2.910000000
H     5.406000000     0.748000000     2.455000000
H     6.868000000     0.356000000     2.453000000
O     0.610000000    -6.904000000     0.177000000
H     0.035000000    -6.829000000    -0.584000000
H     1.354000000    -7.418000000    -0.135000000
O    -1.517000000    -3.573000000    -3.088000000
H    -1.869000000    -4.194000000    -3.726000000
H    -0.861000000    -4.074000000    -2.603000000
O    -2.493000000     4.799000000     2.582000000
H    -1.964000000     4.769000000     1.784000000
H    -1.877000000     4.594000000     3.285000000
O    -0.821000000    -0.911000000    -3.544000000
H    -0.986000000    -1.853000000    -3.567000000
H    -0.274000000    -0.782000000    -2.769000000
O     1.342000000     1.727000000    -4.582000000
H     1.820000000     1.334000000    -3.851000000
H     2.004000000     2.226000000    -5.060000000
O     0.977000000     5.181000000    -2.597000000
H     1.012000000     6.129000000    -2.722000000
H     0.438000000     5.063000000    -1.815000000
O    -3.300000000    -4.950000000     1.731000000
H    -2.449000000    -4.987000000     2.167000000
H    -3.883000000    -4.547000000     2.374000000
O     1.359000000    -4.983000000    -2.546000000
H     1.366000000    -4.166000000    -3.045000000
H     1.857000000    -5.598000000    -3.085000000
O    -3.005000000    -0.255000000    -4.879000000
H    -3.563000000    -0.805000000    -4.330000000
H    -2.204000000    -0.140000000    -4.367000000
O    -0.411000000    -1.856000000     4.812000000
H     0.013000000    -1.140000000     4.340000000
H    -1.346000000    -1.734000000     4.645000000
O    -5.254000000    -1.646000000     1.384000000
H    -5.261000000    -1.149000000     0.566000000
H    -5.614000000    -2.501000000     1.147000000
O     1.199000000    -0.434000000     2.858000000
H     1.013000000    -0.385000000     1.920000000
H     1.337000000    -1.366000000     3.026000000
O     0.327000000     4.415000000     3.457000000
H     1.233000000     4.722000000     3.458000000
H     0.243000000     3.918000000     2.643000000
O    -4.529000000     2.143000000    -1.268000000
H    -4.973000000     2.268000000    -0.429000000
H    -4.624000000     1.209000000    -1.452000000
O    -5.302000000     2.591000000     1.157000000
H    -5.322000000     1.972000000     1.888000000
H    -4.439000000     3.001000000     1.215000000
O     3.583000000     4.046000000    -2.172000000
H     2.747000000     4.464000000    -2.377000000
H     3.481000000     3.734000000    -1.273000000
O    -5.353000000    -5.103000000    -2.860000000
H    -5.103000000    -4.733000000    -2.014000000
H    -4.537000000    -5.448000000    -3.221000000
O     2.472000000    -2.930000000    -4.043000000
H     2.810000000    -2.063000000    -4.269000000
H     3.042000000    -3.539000000    -4.513000000
O    -2.539000000     3.690000000    -1.539000000
H    -2.086000000     3.039000000    -2.075000000
H    -3.269000000     3.211000000    -1.147000000
O     6.188000000    -0.654000000    -1.011000000
H     6.929000000    -0.053000000    -1.079000000
H     5.443000000    -0.155000000    -1.346000000
O    -3.108000000     2.258000000     5.297000000
H    -2.308000000     1.933000000     4.883000000
H    -3.618000000     1.470000000     5.484000000
O    -4.945000000    -3.454000000     3.552000000
H    -5.657000000    -2.909000000     3.217000000
H    -5.095000000    -3.488000000     4.497000000
O     4.330000000     4.025000000     1.606000000
H     3.820000000     3.417000000     1.071000000
H     4.024000000     3.872000000     2.500000000
O    -1.721000000    -7.260000000    -1.628000000
H    -1.431000000    -8.054000000    -2.077000000
H    -1.712000000    -6.585000000    -2.307000000
O     0.562000000     8.064000000     1.213000000
H    -0.325000000     7.846000000     0.927000000
H     1.109000000     7.367000000     0.849000000
O     0.191000000     7.342000000     3.749000000
H     0.199000000     7.690000000     2.857000000
H     0.220000000     6.392000000     3.635000000
O    -2.765000000    -1.638000000     3.355000000
H    -3.306000000    -2.145000000     3.961000000
H    -3.140000000    -1.816000000     2.493000000
O     3.829000000     0.724000000     1.793000000
H     3.751000000     1.438000000     1.161000000
H     2.927000000     0.529000000     2.047000000
O     6.034000000     4.129000000    -3.179000000
H     6.686000000     4.277000000    -2.494000000
H     5.194000000     4.157000000    -2.721000000
O     4.693000000     1.092000000    -2.685000000
H     4.158000000     1.771000000    -2.272000000
H     5.513000000     1.534000000    -2.904000000
