144
-2805.14919
O    -1.555000000     1.909000000     4.060000000
H    -1.934000000     2.537000000     4.675000000
H    -1.471000000     2.397000000     3.241000000
O    -2.838000000     2.957000000    -1.161000000
H    -3.483000000     2.257000000    -1.065000000
H    -2.489000000     3.084000000    -0.278000000
O    -2.670000000     5.248000000     4.174000000
H    -2.965000000     4.968000000     3.307000000
H    -3.253000000     4.795000000     4.783000000
O    -7.127000000     1.602000000     0.453000000
H    -7.126000000     0.645000000     0.435000000
H    -6.963000000     1.824000000     1.370000000
O     5.226000000    -0.310000000    -0.735000000
H     5.259000000     0.176000000    -1.559000000
H     5.463000000     0.333000000    -0.067000000
O     1.163000000    -4.452000000     2.320000000
H     1.433000000    -4.698000000     3.205000000
H     1.202000000    -3.495000000     2.316000000
O    -4.276000000     1.908000000     3.011000000
H    -3.452000000     1.657000000     3.429000000
H    -4.034000000     2.611000000     2.407000000
O    -4.688000000     5.644000000     1.643000000
H    -5.528000000     5.485000000     1.211000000
H    -4.732000000     6.558000000     1.923000000
O    -1.575000000     6.434000000    -1.540000000
H    -1.810000000     6.079000000    -0.683000000
H    -0.747000000     6.006000000    -1.758000000
O     4.344000000    -5.284000000    -3.736000000
H     4.367000000    -5.968000000    -4.405000000
H     3.568000000    -5.486000000    -3.213000000
O    -4.677000000     1.021000000    -0.759000000
H    -4.662000000     0.119000000    -1.080000000
H    -5.545000000     1.121000000    -0.368000000
O    -5.843000000    -3.171000000    -3.439000000
H    -6.294000000    -2.625000000    -2.794000000
H    -4.914000000    -3.055000000    -3.243000000
O     5.303000000     0.011000000     2.334000000
H     4.664000000    -0.480000000     1.818000000
H     5.317000000    -0.432000000     3.182000000
O    -3.302000000    -2.453000000    -3.762000000
H    -3.835000000    -1.663000000    -3.667000000
H    -2.401000000    -2.148000000    -3.654000000
O     0.913000000    -3.578000000    -4.435000000
H     1.125000000    -4.117000000    -5.197000000
H     0.856000000    -4.201000000    -3.710000000
O     4.158000000     2.430000000    -1.895000000
H     4.678000000     2.361000000    -1.094000000
H     4.796000000     2.339000000    -2.603000000
O     1.081000000    -1.238000000    -5.421000000
H     0.965000000    -0.669000000    -4.659000000
H     1.046000000    -2.125000000    -5.065000000
O    -5.053000000    -0.815000000     2.859000000
H    -4.198000000    -1.142000000     3.137000000
H    -4.991000000     0.135000000     2.957000000
O    -0.083000000    -6.189000000    -1.121000000
H    -0.407000000    -6.632000000    -0.337000000
H    -0.836000000    -5.694000000    -1.445000000
O     5.698000000    -3.965000000    -1.886000000
H     5.356000000    -3.071000000    -1.919000000
H     5.231000000    -4.426000000    -2.583000000
O    -1.537000000     8.041000000     2.917000000
H    -1.716000000     7.165000000     2.576000000
H    -1.341000000     8.565000000     2.140000000
O     4.008000000    -2.309000000     1.034000000
H     4.394000000    -1.806000000     0.317000000
H     3.706000000    -3.119000000     0.622000000
O     1.638000000     7.795000000    -1.493000000
H     2.426000000     8.328000000    -1.386000000
H     1.936000000     6.897000000    -1.353000000
O    -4.613000000    -0.189000000    -3.283000000
H    -4.491000000     0.704000000    -3.606000000
H    -5.483000000    -0.440000000    -3.595000000
O    -2.529000000    -5.519000000    -1.942000000
H    -3.245000000    -6.024000000    -1.557000000
H    -2.943000000    -5.006000000    -2.635000000
O    -6.969000000     2.186000000     3.285000000
H    -7.238000000     1.950000000     4.173000000
H    -6.013000000     2.174000000     3.313000000
O     0.584000000     4.732000000    -1.466000000
H     0.884000000     4.571000000    -0.571000000
H     0.875000000     3.964000000    -1.958000000
O     3.013000000    -4.535000000     0.389000000
H     2.075000000    -4.468000000     0.570000000
H     3.286000000    -5.338000000     0.832000000
O    -4.089000000     5.410000000    -2.387000000
H    -3.377000000     6.034000000    -2.248000000
H    -3.796000000     4.610000000    -1.950000000
O    -2.243000000    -2.052000000     2.834000000
H    -2.228000000    -2.945000000     2.491000000
H    -2.222000000    -1.496000000     2.055000000
O    -1.320000000    -2.394000000     5.323000000
H    -1.710000000    -2.333000000     4.451000000
H    -0.738000000    -1.636000000     5.378000000
O     5.669000000     2.180000000     0.153000000
H     6.621000000     2.268000000     0.106000000
H     5.465000000     2.282000000     1.083000000
O    -0.282000000    -8.358000000    -2.818000000
H    -0.654000000    -9.042000000    -2.262000000
H    -0.023000000    -7.667000000    -2.209000000
O     1.824000000    -2.005000000     2.654000000
H     2.299000000    -1.930000000     1.827000000
H     1.919000000    -1.145000000     3.064000000
O     0.057000000     0.724000000    -3.227000000
H     0.753000000     1.356000000    -3.406000000
H     0.080000000     0.605000000    -2.277000000
O    -1.907000000     2.890000000    -3.839000000
H    -1.322000000     2.135000000    -3.903000000
H    -2.198000000     2.892000000    -2.927000000
O     2.761000000     1.437000000     3.801000000
H     2.613000000     2.319000000     3.459000000
H     3.696000000     1.283000000     3.667000000
O     0.441000000     0.077000000     5.170000000
H    -0.330000000     0.577000000     4.903000000
H     1.182000000     0.639000000     4.942000000
O     3.527000000     5.413000000    -0.419000000
H     3.553000000     4.464000000    -0.544000000
H     4.328000000     5.731000000    -0.835000000
O    -1.751000000    -5.301000000     2.385000000
H    -1.607000000    -6.192000000     2.064000000
H    -0.871000000    -4.962000000     2.550000000
O     2.152000000    -5.468000000    -2.326000000
H     2.511000000    -5.263000000    -1.463000000
H     1.254000000    -5.752000000    -2.152000000
O    -2.075000000     5.621000000     1.021000000
H    -3.007000000     5.445000000     1.155000000
H    -1.644000000     4.792000000     1.227000000
O     1.873000000     2.834000000    -3.205000000
H     2.635000000     2.623000000    -2.666000000
H     2.242000000     3.162000000    -4.025000000
O     0.363000000     6.101000000     2.247000000
H    -0.296000000     6.368000000     1.605000000
H     0.452000000     5.156000000     2.120000000
O     3.254000000     7.233000000     1.700000000
H     3.208000000     6.718000000     0.895000000
H     2.755000000     6.724000000     2.339000000
O     0.194000000     5.487000000     4.842000000
H    -0.744000000     5.466000000     5.032000000
H     0.244000000     5.582000000     3.891000000
O     1.205000000     3.036000000     6.458000000
H     0.727000000     3.319000000     7.238000000
H     1.009000000     3.705000000     5.802000000
O     2.711000000     3.954000000     2.934000000
H     2.631000000     4.503000000     3.714000000
H     2.009000000     4.254000000     2.357000000
