144
-2825.89032
O    -2.857000000     0.935000000     3.468000000
H    -2.344000000     1.129000000     4.253000000
H    -2.469000000     1.483000000     2.786000000
O    -3.038000000     4.956000000     2.297000000
H    -3.048000000     5.308000000     1.406000000
H    -2.496000000     4.169000000     2.237000000
O     2.104000000    -3.652000000    -5.400000000
H     1.559000000    -2.869000000    -5.325000000
H     2.664000000    -3.629000000    -4.624000000
O    -0.377000000    -7.117000000     2.381000000
H     0.371000000    -7.674000000     2.599000000
H     0.013000000    -6.276000000     2.141000000
O     2.281000000    -0.904000000    -4.671000000
H     2.695000000    -1.649000000    -4.236000000
H     3.012000000    -0.393000000    -5.019000000
O     0.876000000     7.471000000    -1.054000000
H     0.666000000     6.977000000    -0.262000000
H     1.083000000     6.802000000    -1.706000000
O    -5.242000000     2.946000000     3.261000000
H    -4.382000000     3.200000000     3.595000000
H    -5.264000000     1.994000000     3.354000000
O    -4.492000000     6.252000000     4.482000000
H    -3.758000000     6.068000000     3.895000000
H    -5.270000000     6.032000000     3.970000000
O    -0.502000000    -0.674000000    -6.801000000
H    -1.115000000    -0.635000000    -7.535000000
H    -0.871000000    -1.335000000    -6.215000000
O     1.493000000    -6.573000000    -1.153000000
H     0.988000000    -7.041000000    -1.819000000
H     0.859000000    -6.385000000    -0.461000000
O    -3.546000000     7.650000000     0.256000000
H    -3.943000000     8.337000000     0.793000000
H    -2.828000000     8.088000000    -0.200000000
O     3.910000000    -2.848000000    -3.500000000
H     4.732000000    -2.803000000    -3.989000000
H     4.122000000    -3.367000000    -2.724000000
O    -0.077000000     0.822000000    -4.575000000
H     0.744000000     0.455000000    -4.248000000
H    -0.206000000     0.400000000    -5.425000000
O    -5.051000000     0.242000000    -2.391000000
H    -4.488000000    -0.039000000    -3.113000000
H    -4.457000000     0.338000000    -1.647000000
O     4.458000000    -1.824000000     1.509000000
H     4.837000000    -1.835000000     2.387000000
H     4.222000000    -0.908000000     1.361000000
O     1.336000000    -5.109000000     1.467000000
H     2.139000000    -5.346000000     1.932000000
H     1.451000000    -4.184000000     1.247000000
O    -1.367000000    -2.936000000    -5.208000000
H    -1.824000000    -3.523000000    -5.810000000
H    -1.160000000    -3.484000000    -4.451000000
O    -0.113000000    -0.884000000     4.823000000
H    -0.234000000    -1.781000000     5.136000000
H    -1.001000000    -0.539000000     4.735000000
O     1.741000000     5.437000000    -2.722000000
H     2.435000000     5.749000000    -3.302000000
H     1.846000000     4.486000000    -2.712000000
O    -2.734000000    -0.774000000    -3.679000000
H    -2.377000000    -0.027000000    -4.159000000
H    -2.432000000    -1.540000000    -4.168000000
O    -4.338000000    -0.075000000     0.709000000
H    -4.065000000     0.206000000     1.582000000
H    -5.058000000     0.514000000     0.482000000
O    -2.604000000    -4.861000000     2.443000000
H    -2.314000000    -4.820000000     1.532000000
H    -2.423000000    -3.988000000     2.792000000
O    -1.035000000    -4.564000000    -2.957000000
H    -1.983000000    -4.689000000    -3.002000000
H    -0.673000000    -5.446000000    -3.034000000
O    -2.998000000     3.000000000    -4.065000000
H    -3.039000000     3.379000000    -3.188000000
H    -2.213000000     3.383000000    -4.456000000
O     0.143000000     5.675000000     0.913000000
H     0.014000000     5.583000000     1.857000000
H    -0.496000000     5.076000000     0.525000000
O    -5.325000000     0.156000000     4.365000000
H    -4.399000000     0.219000000     4.131000000
H    -5.362000000    -0.554000000     5.006000000
O    -0.821000000     6.192000000    -3.372000000
H    -1.151000000     5.317000000    -3.167000000
H     0.116000000     6.146000000    -3.178000000
O     4.176000000    -5.733000000    -1.664000000
H     4.414000000    -6.171000000    -2.481000000
H     3.250000000    -5.943000000    -1.540000000
O    -5.711000000     3.249000000    -3.610000000
H    -5.736000000     3.182000000    -2.655000000
H    -4.826000000     2.971000000    -3.846000000
O    -3.509000000    -2.162000000    -1.120000000
H    -3.893000000    -1.604000000    -0.444000000
H    -3.128000000    -1.549000000    -1.749000000
O     2.203000000     0.418000000     5.848000000
H     1.939000000     1.323000000     5.685000000
H     1.406000000    -0.093000000     5.705000000
O    -5.079000000     3.719000000     0.563000000
H    -4.476000000     3.976000000     1.260000000
H    -5.687000000     3.110000000     0.983000000
O    -3.352000000     3.613000000    -1.498000000
H    -2.565000000     3.578000000    -0.954000000
H    -4.073000000     3.686000000    -0.872000000
O    -0.664000000     3.955000000    -5.167000000
H    -0.045000000     3.273000000    -4.908000000
H    -0.125000000     4.616000000    -5.601000000
O     2.983000000    -2.148000000     4.146000000
H     2.184000000    -1.918000000     4.619000000
H     2.882000000    -1.734000000     3.289000000
O     2.675000000    -5.129000000     3.937000000
H     3.462000000    -5.647000000     4.105000000
H     2.892000000    -4.252000000     4.253000000
O    -1.781000000     2.301000000     5.719000000
H    -2.304000000     2.906000000     6.245000000
H    -1.392000000     1.704000000     6.357000000
O     4.547000000     1.110000000     1.229000000
H     3.908000000     1.635000000     0.746000000
H     4.451000000     1.393000000     2.138000000
O     2.872000000     3.918000000     2.833000000
H     3.232000000     3.179000000     3.324000000
H     2.371000000     3.513000000     2.125000000
O    -1.847000000    -7.254000000    -0.331000000
H    -1.908000000    -6.311000000    -0.484000000
H    -1.343000000    -7.333000000     0.479000000
O     5.162000000    -3.364000000    -0.860000000
H     4.804000000    -3.074000000    -0.021000000
H     4.722000000    -4.197000000    -1.032000000
O     1.387000000     2.643000000    -2.467000000
H     0.560000000     2.168000000    -2.394000000
H     1.712000000     2.427000000    -3.341000000
O    -1.609000000    -4.436000000    -0.258000000
H    -1.141000000    -4.517000000    -1.089000000
H    -2.130000000    -3.639000000    -0.352000000
O     4.116000000     1.489000000     3.855000000
H     3.554000000     0.959000000     4.420000000
H     4.944000000     1.549000000     4.330000000
O     2.801000000     3.274000000     0.075000000
H     2.211000000     3.227000000    -0.677000000
H     3.566000000     3.750000000    -0.249000000
O    -0.978000000     7.673000000     2.285000000
H    -0.480000000     7.247000000     1.586000000
H    -1.891000000     7.464000000     2.089000000
O    -0.188000000     4.977000000     3.708000000
H    -0.276000000     5.143000000     4.647000000
H    -0.781000000     4.246000000     3.537000000
O     1.102000000     2.873000000     5.100000000
H     1.262000000     3.485000000     4.381000000
H     0.149000000     2.820000000     5.162000000
