144
-2798.12913
O    -6.522000000     1.530000000     0.827000000
H    -6.569000000     1.188000000    -0.066000000
H    -5.757000000     2.105000000     0.823000000
O    -4.088000000     3.403000000     0.592000000
H    -3.925000000     2.777000000    -0.113000000
H    -3.221000000     3.732000000     0.826000000
O    -0.835000000    -0.912000000    -5.330000000
H    -1.641000000    -1.388000000    -5.529000000
H    -0.318000000    -0.968000000    -6.133000000
O     1.753000000    -2.731000000    -5.866000000
H     1.496000000    -2.283000000    -6.671000000
H     1.466000000    -2.147000000    -5.164000000
O     0.469000000     6.223000000    -5.411000000
H     0.204000000     5.597000000    -4.737000000
H     0.785000000     5.679000000    -6.132000000
O    -3.112000000    -3.445000000     2.677000000
H    -2.647000000    -2.994000000     3.381000000
H    -4.039000000    -3.311000000     2.876000000
O     0.222000000    -7.763000000    -2.405000000
H    -0.413000000    -7.243000000    -2.898000000
H    -0.023000000    -7.635000000    -1.489000000
O    -4.210000000     6.740000000    -0.521000000
H    -4.909000000     6.303000000    -0.034000000
H    -3.802000000     7.324000000     0.119000000
O     1.346000000     0.092000000    -3.949000000
H     0.558000000    -0.439000000    -3.828000000
H     1.021000000     0.929000000    -4.279000000
O    -1.995000000     0.751000000    -3.495000000
H    -1.638000000     0.155000000    -4.154000000
H    -2.286000000     1.514000000    -3.995000000
O    -2.194000000    -1.555000000     4.768000000
H    -3.141000000    -1.441000000     4.837000000
H    -1.834000000    -0.688000000     4.959000000
O    -2.840000000     5.917000000     4.162000000
H    -2.460000000     6.604000000     4.709000000
H    -2.088000000     5.413000000     3.853000000
O     4.043000000    -0.888000000    -3.558000000
H     4.509000000    -1.236000000    -4.319000000
H     3.121000000    -1.069000000    -3.739000000
O    -0.953000000    -7.455000000     0.010000000
H    -1.579000000    -8.169000000     0.131000000
H    -1.445000000    -6.665000000     0.230000000
O     5.774000000    -2.451000000    -1.766000000
H     5.200000000    -1.866000000    -2.262000000
H     5.256000000    -3.246000000    -1.641000000
O    -2.753000000     7.347000000     1.810000000
H    -1.805000000     7.397000000     1.930000000
H    -3.047000000     6.732000000     2.482000000
O     4.684000000     5.199000000     0.262000000
H     4.342000000     6.029000000     0.595000000
H     3.945000000     4.804000000    -0.200000000
O    -2.583000000    -5.283000000     0.555000000
H    -3.455000000    -5.402000000     0.176000000
H    -2.706000000    -4.624000000     1.238000000
O     1.901000000    -2.702000000     3.040000000
H     1.180000000    -2.312000000     2.546000000
H     1.949000000    -2.184000000     3.844000000
O    -3.809000000     2.128000000    -1.697000000
H    -3.276000000     1.458000000    -2.124000000
H    -4.355000000     2.484000000    -2.398000000
O     1.762000000     7.095000000     0.236000000
H     1.098000000     7.598000000    -0.236000000
H     1.788000000     6.251000000    -0.215000000
O    -1.242000000     6.208000000    -0.454000000
H    -1.030000000     5.276000000    -0.399000000
H    -2.097000000     6.285000000    -0.031000000
O     1.782000000    -7.892000000     0.631000000
H     1.726000000    -8.846000000     0.689000000
H     0.873000000    -7.603000000     0.551000000
O     6.749000000    -3.299000000     1.446000000
H     6.683000000    -4.170000000     1.055000000
H     5.850000000    -3.077000000     1.690000000
O    -1.951000000     1.281000000     5.623000000
H    -2.729000000     1.795000000     5.407000000
H    -1.843000000     1.396000000     6.567000000
O     1.357000000    -4.395000000    -2.725000000
H     1.355000000    -4.993000000    -3.472000000
H     0.474000000    -4.463000000    -2.361000000
O    -2.768000000    -6.060000000     3.557000000
H    -2.845000000    -5.106000000     3.565000000
H    -2.738000000    -6.290000000     2.628000000
O     3.456000000     1.733000000    -2.253000000
H     4.155000000     1.596000000    -1.613000000
H     3.367000000     0.888000000    -2.695000000
O    -1.877000000    -6.075000000    -4.318000000
H    -2.630000000    -6.661000000    -4.245000000
H    -1.949000000    -5.496000000    -3.559000000
O     0.194000000     1.478000000     3.795000000
H    -0.079000000     2.227000000     3.265000000
H    -0.512000000     1.366000000     4.432000000
O    -2.970000000     4.912000000    -2.506000000
H    -3.030000000     5.543000000    -1.788000000
H    -2.968000000     4.058000000    -2.074000000
O     2.700000000     3.715000000    -4.401000000
H     1.779000000     3.884000000    -4.205000000
H     3.079000000     3.452000000    -3.562000000
O    -0.431000000    -3.550000000     5.636000000
H     0.131000000    -3.146000000     6.297000000
H    -1.127000000    -2.909000000     5.490000000
O     1.569000000    -5.269000000     5.071000000
H     2.011000000    -4.741000000     4.407000000
H     0.803000000    -4.751000000     5.318000000
O     4.198000000    -1.755000000     2.191000000
H     3.763000000    -0.908000000     2.098000000
H     3.490000000    -2.367000000     2.394000000
O     4.419000000     1.661000000     2.187000000
H     4.548000000     1.928000000     1.277000000
H     3.489000000     1.446000000     2.244000000
O     2.622000000     3.870000000    -0.708000000
H     3.050000000     3.092000000    -1.065000000
H     1.686000000     3.680000000    -0.775000000
O    -1.510000000    -4.402000000    -2.102000000
H    -1.730000000    -4.885000000    -1.305000000
H    -1.644000000    -3.483000000    -1.870000000
O     3.482000000    -4.342000000    -1.111000000
H     2.790000000    -4.183000000    -1.752000000
H     3.591000000    -5.293000000    -1.107000000
O    -0.178000000     3.854000000    -3.642000000
H    -0.302000000     3.793000000    -2.695000000
H    -1.066000000     3.881000000    -3.999000000
O    -2.488000000    -1.450000000    -1.657000000
H    -2.018000000    -1.116000000    -0.893000000
H    -2.427000000    -0.746000000    -2.303000000
O     2.024000000     0.543000000     1.977000000
H     1.676000000     0.862000000     2.810000000
H     1.274000000     0.558000000     1.382000000
O     2.988000000    -5.015000000     1.787000000
H     2.210000000    -4.475000000     1.927000000
H     3.210000000    -4.880000000     0.866000000
O     0.183000000     8.022000000    -2.037000000
H     0.317000000     8.732000000    -1.409000000
H    -0.473000000     7.459000000    -1.625000000
O     0.155000000     7.761000000     2.504000000
H     0.553000000     7.092000000     1.946000000
H     0.206000000     8.565000000     1.988000000
O    -6.122000000     5.463000000     1.172000000
H    -5.654000000     4.640000000     1.034000000
H    -6.050000000     5.624000000     2.113000000
O    -0.928000000     4.907000000     2.619000000
H    -0.030000000     5.195000000     2.457000000
H    -1.137000000     4.344000000     1.874000000
O     2.007000000     4.006000000     2.946000000
H     2.186000000     3.784000000     2.032000000
H     2.872000000     4.049000000     3.355000000
