144
-2814.08323
O    -3.761000000     3.568000000    -0.724000000
H    -2.833000000     3.509000000    -0.497000000
H    -4.011000000     4.459000000    -0.481000000
O    -2.309000000     7.265000000     2.840000000
H    -2.546000000     7.740000000     3.637000000
H    -2.541000000     7.861000000     2.128000000
O    -4.200000000    -2.587000000    -1.845000000
H    -4.173000000    -3.441000000    -1.413000000
H    -4.927000000    -2.128000000    -1.423000000
O     1.526000000     4.259000000    -3.370000000
H     2.142000000     4.905000000    -3.715000000
H     1.826000000     3.425000000    -3.732000000
O     4.880000000     2.758000000     2.534000000
H     3.926000000     2.706000000     2.476000000
H     5.187000000     1.908000000     2.220000000
O     0.917000000    -3.703000000    -3.715000000
H     0.456000000    -4.516000000    -3.923000000
H     1.314000000    -3.866000000    -2.859000000
O    -4.091000000     2.604000000    -3.268000000
H    -4.835000000     2.079000000    -2.973000000
H    -3.608000000     2.807000000    -2.467000000
O    -2.495000000    -3.859000000    -4.493000000
H    -3.250000000    -4.360000000    -4.183000000
H    -2.045000000    -3.585000000    -3.694000000
O    -4.180000000    -1.606000000     4.719000000
H    -5.005000000    -1.184000000     4.959000000
H    -3.675000000    -0.916000000     4.289000000
O     5.976000000     4.178000000     0.561000000
H     5.190000000     4.235000000     0.017000000
H     5.655000000     3.888000000     1.415000000
O     4.634000000    -1.418000000    -3.507000000
H     5.461000000    -0.965000000    -3.338000000
H     4.600000000    -1.506000000    -4.460000000
O     3.834000000    -3.574000000    -1.360000000
H     4.048000000    -2.745000000    -1.788000000
H     4.481000000    -4.193000000    -1.698000000
O     1.333000000    -2.366000000    -5.864000000
H     0.539000000    -1.832000000    -5.873000000
H     1.234000000    -2.930000000    -5.096000000
O    -5.905000000    -1.093000000     0.003000000
H    -5.481000000    -0.238000000     0.075000000
H    -6.835000000    -0.891000000    -0.095000000
O    -1.303000000    -5.399000000     2.847000000
H    -1.904000000    -5.630000000     3.555000000
H    -0.673000000    -4.804000000     3.253000000
O    -4.466000000     5.967000000     0.237000000
H    -3.530000000     6.153000000     0.172000000
H    -4.686000000     6.157000000     1.149000000
O    -3.206000000     1.655000000     5.523000000
H    -4.095000000     1.852000000     5.817000000
H    -3.095000000     2.176000000     4.727000000
O     4.932000000     3.330000000    -2.306000000
H     5.871000000     3.150000000    -2.351000000
H     4.520000000     2.466000000    -2.333000000
O    -3.155000000    -4.948000000    -0.656000000
H    -3.476000000    -5.740000000    -0.224000000
H    -2.203000000    -5.042000000    -0.651000000
O     3.788000000    -3.154000000     1.884000000
H     3.875000000    -2.351000000     1.370000000
H     4.140000000    -3.840000000     1.318000000
O     1.729000000     6.513000000     1.482000000
H     1.662000000     5.858000000     0.787000000
H     1.181000000     6.170000000     2.188000000
O    -1.711000000     6.183000000    -0.308000000
H    -1.453000000     5.343000000     0.069000000
H    -0.892000000     6.675000000    -0.380000000
O     2.030000000    -4.482000000     3.757000000
H     2.124000000    -3.933000000     2.979000000
H     2.064000000    -3.868000000     4.490000000
O    -0.055000000     2.357000000     3.695000000
H    -0.321000000     3.238000000     3.432000000
H    -0.053000000     2.383000000     4.652000000
O     4.850000000    -1.050000000     0.297000000
H     5.382000000    -0.378000000     0.722000000
H     4.318000000    -0.570000000    -0.337000000
O    -3.193000000     3.068000000     3.270000000
H    -3.553000000     2.658000000     2.483000000
H    -2.482000000     3.622000000     2.948000000
O    -0.512000000    -3.114000000     4.097000000
H    -0.556000000    -2.204000000     3.802000000
H     0.180000000    -3.118000000     4.758000000
O    -3.959000000    -5.822000000    -3.053000000
H    -3.516000000    -6.650000000    -3.238000000
H    -3.784000000    -5.658000000    -2.126000000
O    -0.098000000    -0.421000000     3.009000000
H    -0.103000000    -0.676000000     2.086000000
H    -0.282000000     0.518000000     2.999000000
O     4.145000000     7.932000000     0.467000000
H     3.557000000     7.227000000     0.738000000
H     4.110000000     7.917000000    -0.490000000
O    -2.478000000     6.364000000    -3.183000000
H    -2.235000000     5.625000000    -3.741000000
H    -2.182000000     6.111000000    -2.308000000
O     2.466000000     1.745000000    -5.473000000
H     1.924000000     1.758000000    -6.261000000
H     1.943000000     1.266000000    -4.830000000
O     3.706000000     0.994000000    -2.607000000
H     2.802000000     0.803000000    -2.855000000
H     4.221000000     0.304000000    -3.025000000
O    -5.421000000    -3.212000000     1.922000000
H    -5.783000000    -2.585000000     1.295000000
H    -4.798000000    -2.701000000     2.439000000
O    -0.851000000    -6.150000000     0.025000000
H     0.037000000    -5.877000000    -0.205000000
H    -0.947000000    -5.900000000     0.944000000
O    -5.021000000     1.688000000     0.880000000
H    -4.968000000     1.929000000    -0.045000000
H    -5.729000000     2.231000000     1.229000000
O     2.652000000     0.292000000     3.660000000
H     1.717000000     0.371000000     3.471000000
H     2.799000000     0.888000000     4.395000000
O     3.348000000     4.567000000    -0.171000000
H     3.707000000     4.333000000    -1.027000000
H     2.465000000     4.198000000    -0.173000000
O    -1.197000000     3.725000000    -3.181000000
H    -0.312000000     4.085000000    -3.122000000
H    -1.234000000     3.321000000    -4.048000000
O    -1.762000000     0.200000000    -3.386000000
H    -2.470000000     0.134000000    -2.745000000
H    -1.956000000     0.999000000    -3.876000000
O     2.310000000     2.996000000     2.414000000
H     1.776000000     3.302000000     1.681000000
H     1.679000000     2.624000000     3.030000000
O     0.937000000     0.644000000    -3.560000000
H    -0.011000000     0.626000000    -3.692000000
H     1.045000000     0.704000000    -2.610000000
O     1.694000000    -5.433000000    -0.440000000
H     2.136000000    -4.603000000    -0.618000000
H     2.248000000    -6.094000000    -0.854000000
O     0.631000000     8.945000000     0.611000000
H     1.138000000     8.144000000     0.744000000
H     0.899000000     9.256000000    -0.254000000
O    -0.674000000     4.998000000     2.746000000
H    -1.131000000     5.839000000     2.748000000
H    -0.736000000     4.693000000     1.841000000
O     4.070000000     4.983000000     4.143000000
H     3.503000000     4.627000000     3.459000000
H     4.912000000     4.548000000     4.006000000
O     4.550000000    -5.773000000     0.794000000
H     3.780000000    -6.331000000     0.906000000
H     4.383000000    -5.295000000    -0.018000000
O     1.187000000     6.363000000    -1.339000000
H     1.450000000     6.855000000    -2.116000000
H     1.290000000     5.445000000    -1.590000000
