144
-2817.34543
O    -5.487000000     1.837000000     0.109000000
H    -4.860000000     2.056000000     0.798000000
H    -6.143000000     2.534000000     0.151000000
O    -0.515000000     7.511000000     3.684000000
H     0.162000000     8.161000000     3.495000000
H    -0.069000000     6.668000000     3.596000000
O    -2.973000000    -3.932000000    -2.154000000
H    -2.322000000    -4.477000000    -1.712000000
H    -3.259000000    -3.311000000    -1.485000000
O     5.517000000     0.415000000     1.705000000
H     4.702000000    -0.086000000     1.732000000
H     6.165000000    -0.157000000     2.117000000
O    -1.975000000    -5.057000000    -4.815000000
H    -1.993000000    -4.553000000    -4.001000000
H    -1.272000000    -4.659000000    -5.328000000
O    -2.763000000    -0.017000000    -4.183000000
H    -3.396000000     0.140000000    -3.482000000
H    -2.656000000    -0.968000000    -4.200000000
O     2.031000000     5.847000000     0.881000000
H     2.241000000     6.300000000     1.698000000
H     1.130000000     5.544000000     1.000000000
O    -3.237000000    -2.010000000     2.701000000
H    -3.464000000    -1.622000000     3.546000000
H    -2.314000000    -1.789000000     2.576000000
O    -3.844000000     5.869000000     3.597000000
H    -4.117000000     5.826000000     4.513000000
H    -3.508000000     6.759000000     3.489000000
O     5.713000000    -0.966000000    -2.245000000
H     6.536000000    -1.451000000    -2.310000000
H     5.259000000    -1.154000000    -3.067000000
O     1.681000000    -4.288000000    -3.754000000
H     2.052000000    -3.633000000    -3.163000000
H     1.381000000    -4.989000000    -3.177000000
O     0.122000000    -1.087000000    -5.792000000
H     0.341000000    -0.869000000    -4.886000000
H     0.896000000    -0.832000000    -6.294000000
O    -0.197000000     4.790000000     6.916000000
H    -0.574000000     4.602000000     6.056000000
H     0.746000000     4.680000000     6.793000000
O     0.588000000    -5.293000000     1.501000000
H     0.985000000    -4.423000000     1.450000000
H     1.121000000    -5.834000000     0.919000000
O    -5.005000000    -3.344000000    -4.606000000
H    -4.380000000    -3.240000000    -3.889000000
H    -5.635000000    -3.989000000    -4.283000000
O    -3.775000000     3.084000000     1.865000000
H    -2.864000000     2.953000000     2.129000000
H    -3.946000000     4.008000000     2.047000000
O     5.414000000     3.299000000     1.042000000
H     4.560000000     3.265000000     0.610000000
H     5.771000000     2.416000000     0.938000000
O     2.301000000     3.705000000     6.100000000
H     2.483000000     3.138000000     6.850000000
H     2.848000000     3.355000000     5.397000000
O    -1.557000000    -5.431000000    -0.483000000
H    -2.080000000    -5.393000000     0.318000000
H    -0.652000000    -5.484000000    -0.177000000
O     6.141000000     2.783000000     4.028000000
H     5.309000000     2.321000000     3.926000000
H     6.423000000     2.970000000     3.133000000
O     2.279000000    -3.098000000     1.184000000
H     2.638000000    -3.018000000     0.301000000
H     3.041000000    -3.263000000     1.739000000
O     1.893000000     0.032000000     5.395000000
H     2.434000000     0.087000000     6.182000000
H     1.067000000     0.448000000     5.643000000
O     0.237000000    -3.841000000    -6.077000000
H     0.770000000    -4.208000000    -5.372000000
H     0.368000000    -2.895000000    -6.008000000
O    -1.962000000    -1.176000000    -7.806000000
H    -2.542000000    -0.556000000    -7.364000000
H    -1.199000000    -1.241000000    -7.232000000
O     1.271000000     5.254000000     3.435000000
H     1.178000000     4.332000000     3.197000000
H     1.191000000     5.264000000     4.389000000
O    -2.393000000     3.758000000    -2.131000000
H    -2.997000000     3.860000000    -1.394000000
H    -1.529000000     3.691000000    -1.724000000
O    -0.068000000    -1.973000000     2.156000000
H    -0.161000000    -1.312000000     1.470000000
H     0.725000000    -2.455000000     1.919000000
O    -0.308000000     1.482000000     6.141000000
H    -0.713000000     1.989000000     5.437000000
H    -0.455000000     2.006000000     6.929000000
O     3.344000000    -3.335000000    -1.541000000
H     4.176000000    -3.463000000    -1.084000000
H     3.590000000    -2.948000000    -2.381000000
O    -3.567000000     3.065000000     6.836000000
H    -4.494000000     2.921000000     7.023000000
H    -3.560000000     3.503000000     5.984000000
O    -4.764000000    -3.926000000     1.506000000
H    -5.594000000    -3.449000000     1.487000000
H    -4.157000000    -3.332000000     1.946000000
O     0.240000000    -2.372000000     5.007000000
H     0.794000000    -1.637000000     5.270000000
H    -0.109000000    -2.115000000     4.153000000
O     3.304000000    -1.687000000    -3.823000000
H     2.686000000    -0.958000000    -3.757000000
H     3.252000000    -1.963000000    -4.738000000
O     4.696000000     1.439000000    -1.951000000
H     3.765000000     1.289000000    -1.788000000
H     5.076000000     0.561000000    -1.994000000
O    -1.992000000     2.552000000    -4.440000000
H    -1.963000000     3.014000000    -3.603000000
H    -2.377000000     1.700000000    -4.231000000
O    -4.283000000    -1.731000000    -0.554000000
H    -5.090000000    -1.329000000    -0.875000000
H    -4.578000000    -2.475000000    -0.029000000
O     5.501000000    -1.071000000     4.508000000
H     6.380000000    -1.192000000     4.149000000
H     4.915000000    -1.340000000     3.801000000
O     3.373000000    -0.952000000     2.990000000
H     2.865000000    -1.721000000     2.730000000
H     2.884000000    -0.578000000     3.723000000
O     2.799000000     3.499000000     0.217000000
H     2.821000000     4.454000000     0.161000000
H     2.158000000     3.313000000     0.903000000
O     3.788000000    -3.756000000    -6.054000000
H     3.133000000    -4.412000000    -5.814000000
H     4.526000000    -3.930000000    -5.470000000
O    -4.441000000     1.187000000    -2.185000000
H    -5.235000000     0.955000000    -2.665000000
H    -4.737000000     1.327000000    -1.285000000
O     3.449000000     2.031000000     4.034000000
H     2.876000000     2.261000000     3.303000000
H     3.151000000     1.164000000     4.309000000
O     0.556000000     0.433000000    -3.516000000
H     0.689000000     0.427000000    -2.568000000
H    -0.316000000     0.811000000    -3.633000000
O     0.860000000    -6.501000000    -2.451000000
H     0.147000000    -6.929000000    -2.924000000
H     1.409000000    -7.221000000    -2.142000000
O    -0.807000000     5.229000000     0.811000000
H    -1.658000000     5.544000000     1.115000000
H    -0.710000000     4.368000000     1.218000000
O    -1.377000000     4.174000000     4.572000000
H    -1.055000000     3.569000000     3.904000000
H    -2.064000000     4.674000000     4.131000000
O     4.954000000    -3.646000000     1.971000000
H     5.017000000    -3.875000000     2.898000000
H     5.340000000    -4.392000000     1.513000000
O     0.538000000     3.561000000    -2.078000000
H     1.111000000     3.751000000    -2.821000000
H     1.051000000     3.812000000    -1.310000000
