144
-2789.72497
O    -4.327000000     0.911000000     1.471000000
H    -3.752000000     1.445000000     2.020000000
H    -4.931000000     1.539000000     1.075000000
O     1.718000000     7.903000000     2.595000000
H     2.503000000     8.280000000     2.198000000
H     1.976000000     7.015000000     2.840000000
O    -1.168000000    -5.206000000    -0.445000000
H    -1.633000000    -5.841000000    -0.990000000
H    -1.807000000    -4.511000000    -0.289000000
O    -5.452000000    -0.502000000    -2.202000000
H    -4.576000000    -0.329000000    -1.858000000
H    -5.334000000    -0.539000000    -3.151000000
O    -0.471000000    -4.500000000    -5.425000000
H    -1.108000000    -3.820000000    -5.644000000
H     0.367000000    -4.150000000    -5.729000000
O    -3.026000000    -0.295000000    -4.439000000
H    -3.068000000    -0.114000000    -3.500000000
H    -3.927000000    -0.187000000    -4.744000000
O     1.331000000     7.937000000     0.020000000
H     1.154000000     8.130000000     0.941000000
H     1.412000000     6.984000000    -0.014000000
O    -0.796000000    -4.327000000     5.290000000
H    -0.688000000    -4.063000000     6.204000000
H    -1.162000000    -3.555000000     4.860000000
O     4.942000000     6.021000000     2.939000000
H     4.034000000     5.762000000     2.780000000
H     5.435000000     5.620000000     2.224000000
O    -2.579000000     5.109000000     6.186000000
H    -3.477000000     4.943000000     5.899000000
H    -2.156000000     5.513000000     5.428000000
O     5.272000000    -0.457000000    -0.032000000
H     4.978000000    -0.840000000     0.795000000
H     5.348000000    -1.203000000    -0.627000000
O     3.085000000    -4.493000000    -3.506000000
H     3.964000000    -4.136000000    -3.378000000
H     2.751000000    -4.631000000    -2.619000000
O     1.650000000     0.244000000    -4.226000000
H     1.741000000     1.196000000    -4.193000000
H     2.461000000    -0.060000000    -4.634000000
O    -3.945000000    -3.610000000    -2.811000000
H    -3.745000000    -3.665000000    -1.877000000
H    -4.312000000    -4.467000000    -3.029000000
O     0.229000000    -6.846000000     1.457000000
H     0.615000000    -6.342000000     2.173000000
H    -0.198000000    -6.191000000     0.905000000
O    -2.765000000     2.241000000     3.099000000
H    -1.855000000     2.225000000     3.393000000
H    -2.910000000     3.144000000     2.817000000
O    -5.261000000     1.649000000     3.937000000
H    -5.591000000     2.488000000     4.261000000
H    -4.447000000     1.871000000     3.484000000
O     5.852000000     4.865000000     0.578000000
H     5.008000000     4.525000000     0.280000000
H     6.185000000     5.365000000    -0.167000000
O     4.071000000     2.682000000     5.765000000
H     4.869000000     3.199000000     5.874000000
H     4.101000000     2.384000000     4.855000000
O    -2.075000000    -2.476000000     3.866000000
H    -1.970000000    -1.525000000     3.865000000
H    -2.935000000    -2.622000000     3.470000000
O    -2.934000000    -2.999000000    -5.436000000
H    -3.236000000    -3.336000000    -4.593000000
H    -2.964000000    -2.047000000    -5.338000000
O    -5.302000000    -3.288000000     2.888000000
H    -5.348000000    -2.845000000     2.041000000
H    -5.254000000    -2.578000000     3.528000000
O     3.431000000    -4.500000000    -0.369000000
H     3.921000000    -5.262000000    -0.678000000
H     3.966000000    -3.750000000    -0.628000000
O     1.840000000    -3.279000000    -5.896000000
H     2.463000000    -3.924000000    -5.560000000
H     2.113000000    -2.452000000    -5.499000000
O    -0.273000000    -0.728000000    -5.745000000
H    -1.124000000    -0.840000000    -5.321000000
H     0.320000000    -0.491000000    -5.032000000
O     2.321000000     5.172000000     2.832000000
H     1.964000000     4.428000000     2.346000000
H     2.096000000     4.992000000     3.744000000
O    -2.814000000     0.786000000    -2.048000000
H    -3.024000000     1.704000000    -1.873000000
H    -2.034000000     0.614000000    -1.520000000
O     1.457000000    -2.567000000     2.184000000
H     2.151000000    -2.945000000     1.644000000
H     0.932000000    -2.052000000     1.572000000
O     1.761000000     2.148000000     7.110000000
H     2.124000000     2.518000000     7.915000000
H     2.362000000     2.435000000     6.422000000
O    -3.072000000     0.064000000     6.139000000
H    -2.557000000     0.712000000     5.658000000
H    -2.708000000     0.077000000     7.024000000
O     0.601000000    -7.060000000    -4.074000000
H     0.774000000    -6.827000000    -3.162000000
H     0.146000000    -6.299000000    -4.433000000
O    -0.221000000     0.884000000     5.292000000
H     0.056000000     1.303000000     4.477000000
H     0.412000000     1.187000000     5.943000000
O    -0.272000000    -1.258000000     7.278000000
H    -0.970000000    -0.836000000     7.779000000
H    -0.194000000    -0.729000000     6.484000000
O    -4.978000000    -1.395000000     4.751000000
H    -5.295000000    -0.609000000     4.305000000
H    -4.245000000    -1.088000000     5.285000000
O    -2.626000000     5.032000000     3.117000000
H    -3.495000000     5.265000000     2.791000000
H    -2.156000000     5.865000000     3.163000000
O     3.963000000    -1.104000000    -5.315000000
H     4.563000000    -1.513000000    -4.691000000
H     4.391000000    -1.212000000    -6.165000000
O     5.034000000     2.601000000    -1.591000000
H     4.536000000     3.110000000    -0.951000000
H     5.262000000     1.794000000    -1.129000000
O    -3.559000000    -3.890000000    -0.156000000
H    -3.705000000    -2.978000000     0.094000000
H    -3.897000000    -4.398000000     0.581000000
O     2.809000000    -0.826000000     3.838000000
H     2.584000000    -1.606000000     3.330000000
H     2.305000000    -0.914000000     4.647000000
O     3.315000000     4.084000000    -0.191000000
H     2.611000000     4.138000000    -0.837000000
H     2.917000000     3.644000000     0.561000000
O    -4.826000000    -1.775000000     0.594000000
H    -5.208000000    -1.572000000    -0.260000000
H    -4.613000000    -0.922000000     0.971000000
O     3.610000000     1.682000000     3.321000000
H     2.877000000     1.899000000     2.745000000
H     3.370000000     0.839000000     3.707000000
O     2.044000000     2.986000000    -4.110000000
H     2.904000000     3.406000000    -4.109000000
H     1.624000000     3.299000000    -3.309000000
O     1.201000000    -5.901000000    -1.206000000
H     0.310000000    -5.636000000    -0.978000000
H     1.755000000    -5.203000000    -0.857000000
O    -0.971000000     4.428000000    -0.347000000
H    -1.224000000     3.962000000     0.450000000
H    -1.609000000     4.145000000    -1.002000000
O     0.986000000     4.216000000     4.944000000
H     0.705000000     3.718000000     4.176000000
H     0.627000000     3.733000000     5.688000000
O    -7.005000000    -3.106000000    -2.067000000
H    -7.449000000    -2.463000000    -1.514000000
H    -6.274000000    -2.624000000    -2.454000000
O     1.274000000     4.739000000    -1.931000000
H     1.249000000     5.523000000    -2.480000000
H     0.449000000     4.759000000    -1.447000000
