144
-2801.19803
O    -4.264000000    -0.664000000     2.350000000
H    -3.525000000    -0.438000000     2.915000000
H    -4.524000000     0.166000000     1.952000000
O     4.478000000    -0.826000000    -0.878000000
H     4.956000000    -0.402000000    -0.165000000
H     4.090000000    -1.604000000    -0.477000000
O     4.109000000     5.844000000     5.249000000
H     3.295000000     6.189000000     5.616000000
H     3.828000000     5.131000000     4.675000000
O    -3.451000000    -6.201000000     0.151000000
H    -4.390000000    -6.040000000     0.244000000
H    -3.222000000    -6.733000000     0.913000000
O    -1.716000000     2.874000000     7.207000000
H    -1.737000000     3.090000000     6.275000000
H    -2.564000000     2.464000000     7.377000000
O    -5.089000000    -2.564000000    -5.516000000
H    -5.495000000    -1.701000000    -5.592000000
H    -4.300000000    -2.413000000    -4.996000000
O     1.462000000    -2.258000000    -5.601000000
H     1.399000000    -3.005000000    -5.006000000
H     2.383000000    -2.000000000    -5.564000000
O    -3.012000000     2.035000000    -1.180000000
H    -3.500000000     1.351000000    -1.637000000
H    -3.312000000     1.978000000    -0.273000000
O    -0.694000000     2.192000000    -2.619000000
H    -0.191000000     1.693000000    -1.976000000
H    -1.239000000     2.779000000    -2.093000000
O     4.944000000     3.358000000     2.540000000
H     4.139000000     3.729000000     2.179000000
H     4.658000000     2.877000000     3.317000000
O     3.134000000     0.173000000     3.038000000
H     3.896000000     0.449000000     2.529000000
H     2.920000000     0.933000000     3.580000000
O    -6.292000000     1.278000000     2.094000000
H    -7.215000000     1.519000000     2.171000000
H    -5.838000000     1.870000000     2.694000000
O     0.666000000     3.380000000    -4.746000000
H     0.619000000     4.305000000    -4.504000000
H     0.311000000     2.916000000    -3.988000000
O     1.377000000     6.655000000     0.493000000
H     1.014000000     6.432000000    -0.364000000
H     0.871000000     7.416000000     0.777000000
O     1.453000000    -4.226000000     1.115000000
H     1.430000000    -3.335000000     1.464000000
H     0.546000000    -4.411000000     0.869000000
O    -3.534000000    -3.385000000    -0.891000000
H    -4.204000000    -3.363000000    -0.207000000
H    -3.245000000    -4.297000000    -0.915000000
O    -0.862000000    -5.098000000     3.621000000
H    -0.381000000    -4.451000000     4.137000000
H    -0.957000000    -4.695000000     2.758000000
O    -3.258000000     2.215000000     1.891000000
H    -2.374000000     1.905000000     2.087000000
H    -3.258000000     3.131000000     2.170000000
O     5.759000000     4.392000000    -0.844000000
H     6.413000000     3.724000000    -0.638000000
H     5.333000000     4.073000000    -1.640000000
O    -3.486000000    -2.356000000     5.254000000
H    -3.048000000    -1.597000000     4.868000000
H    -3.362000000    -2.250000000     6.197000000
O    -3.038000000    -1.913000000    -3.638000000
H    -3.207000000    -2.127000000    -2.721000000
H    -2.906000000    -0.965000000    -3.641000000
O     1.746000000    -1.723000000     1.758000000
H     2.319000000    -1.146000000     2.263000000
H     1.260000000    -1.132000000     1.182000000
O     0.922000000     0.556000000    -6.747000000
H     1.563000000     0.837000000    -6.094000000
H     0.791000000    -0.375000000    -6.569000000
O     1.138000000     3.534000000     6.209000000
H     1.055000000     4.279000000     6.805000000
H     0.447000000     2.931000000     6.482000000
O     2.690000000     1.393000000    -4.833000000
H     2.069000000     2.117000000    -4.764000000
H     3.268000000     1.499000000    -4.078000000
O     0.043000000    -6.910000000    -3.552000000
H    -0.692000000    -7.420000000    -3.891000000
H     0.163000000    -7.228000000    -2.657000000
O     1.034000000    -2.222000000     4.465000000
H     1.625000000    -2.911000000     4.770000000
H     1.272000000    -2.091000000     3.547000000
O     2.942000000    -4.503000000    -0.986000000
H     3.891000000    -4.432000000    -0.881000000
H     2.599000000    -4.475000000    -0.093000000
O     1.464000000    -4.654000000    -3.978000000
H     1.067000000    -5.505000000    -3.795000000
H     1.694000000    -4.307000000    -3.116000000
O    -0.933000000    -0.569000000     4.943000000
H    -0.782000000     0.095000000     4.270000000
H    -0.239000000    -1.214000000     4.803000000
O    -1.758000000    -4.119000000    -4.767000000
H    -0.837000000    -4.320000000    -4.603000000
H    -1.875000000    -3.234000000    -4.423000000
O    -3.263000000    -6.299000000    -3.971000000
H    -2.577000000    -5.633000000    -3.912000000
H    -2.831000000    -7.052000000    -4.374000000
O    -1.323000000     4.427000000     0.728000000
H    -0.657000000     3.879000000     1.143000000
H    -1.131000000     5.312000000     1.038000000
O    -5.663000000     1.172000000    -0.777000000
H    -5.695000000     1.963000000    -0.239000000
H    -5.762000000     0.454000000    -0.152000000
O     5.163000000     6.279000000     1.181000000
H     5.084000000     5.635000000     0.477000000
H     4.584000000     5.954000000     1.870000000
O    -2.762000000     0.798000000    -4.034000000
H    -2.001000000     1.042000000    -3.508000000
H    -3.187000000     1.630000000    -4.241000000
O     5.808000000    -1.210000000    -4.098000000
H     5.349000000    -1.144000000    -3.260000000
H     6.732000000    -1.280000000    -3.859000000
O     5.477000000     1.017000000     1.119000000
H     5.418000000     1.932000000     1.395000000
H     6.309000000     0.712000000     1.480000000
O    -5.621000000    -3.084000000     1.342000000
H    -6.242000000    -2.659000000     0.751000000
H    -5.138000000    -2.362000000     1.742000000
O    -3.790000000     5.058000000     3.157000000
H    -3.791000000     5.998000000     2.980000000
H    -4.696000000     4.785000000     3.011000000
O     2.945000000     4.640000000     1.343000000
H     2.404000000     5.364000000     1.027000000
H     2.317000000     3.957000000     1.577000000
O     2.636000000     2.866000000     4.086000000
H     2.207000000     3.104000000     4.908000000
H     1.996000000     3.087000000     3.410000000
O     4.262000000     1.842000000    -2.482000000
H     4.531000000     1.345000000    -1.709000000
H     3.776000000     2.588000000    -2.130000000
O    -1.176000000    -4.385000000     0.754000000
H    -1.607000000    -3.662000000     0.299000000
H    -1.588000000    -5.172000000     0.398000000
O     0.825000000     5.303000000     3.744000000
H     0.732000000     4.720000000     2.990000000
H     0.647000000     4.744000000     4.501000000
O    -1.597000000     3.909000000     4.786000000
H    -1.323000000     3.245000000     4.153000000
H    -2.183000000     4.483000000     4.293000000
O    -1.064000000     6.702000000     2.149000000
H    -1.374000000     7.234000000     2.882000000
H    -0.175000000     6.448000000     2.397000000
O     2.906000000     4.370000000    -1.659000000
H     2.884000000     5.327000000    -1.629000000
H     2.661000000     4.098000000    -0.775000000
