144
-2809.46157
O     2.648000000    -3.260000000     3.460000000
H     3.293000000    -3.818000000     3.025000000
H     2.107000000    -2.919000000     2.747000000
O    -5.890000000     0.263000000     2.457000000
H    -5.080000000     0.731000000     2.659000000
H    -6.552000000     0.950000000     2.383000000
O     4.916000000    -1.246000000     0.614000000
H     5.778000000    -1.016000000     0.958000000
H     4.338000000    -0.551000000     0.930000000
O     2.551000000     6.829000000     3.193000000
H     1.809000000     6.745000000     3.792000000
H     2.182000000     6.654000000     2.328000000
O    -3.938000000    -6.501000000     0.037000000
H    -4.311000000    -5.983000000     0.750000000
H    -3.195000000    -5.982000000    -0.272000000
O    -2.533000000    -2.704000000    -6.432000000
H    -2.471000000    -2.333000000    -5.552000000
H    -1.918000000    -3.438000000    -6.427000000
O     0.579000000    -6.508000000    -0.624000000
H     0.375000000    -6.075000000     0.205000000
H     1.130000000    -7.251000000    -0.377000000
O     3.864000000    -4.599000000    -4.324000000
H     3.583000000    -4.893000000    -3.457000000
H     4.104000000    -5.403000000    -4.784000000
O    -2.123000000     1.842000000    -2.294000000
H    -2.958000000     1.771000000    -2.756000000
H    -2.102000000     1.079000000    -1.717000000
O    -1.786000000     1.651000000    -5.527000000
H    -1.927000000     2.518000000    -5.148000000
H    -0.847000000     1.494000000    -5.423000000
O     2.968000000     3.063000000     3.169000000
H     2.073000000     2.928000000     2.859000000
H     2.983000000     3.972000000     3.469000000
O     3.412000000     0.475000000     2.109000000
H     3.016000000     0.402000000     2.977000000
H     3.975000000     1.247000000     2.167000000
O     1.510000000     4.016000000    -3.790000000
H     2.081000000     4.132000000    -3.030000000
H     0.879000000     4.733000000    -3.727000000
O    -5.493000000     3.893000000     5.125000000
H    -5.797000000     3.079000000     4.722000000
H    -5.019000000     4.344000000     4.426000000
O     2.822000000     5.782000000    -0.969000000
H     1.897000000     5.703000000    -0.736000000
H     2.937000000     6.707000000    -1.187000000
O    -1.829000000    -4.713000000    -0.341000000
H    -1.679000000    -4.204000000     0.455000000
H    -1.038000000    -5.242000000    -0.440000000
O    -4.109000000    -3.726000000    -2.016000000
H    -4.979000000    -3.885000000    -1.652000000
H    -3.563000000    -3.527000000    -1.255000000
O     0.427000000    -5.003000000     1.723000000
H     1.189000000    -4.424000000     1.687000000
H    -0.311000000    -4.417000000     1.890000000
O    -4.149000000     2.331000000     3.042000000
H    -3.216000000     2.122000000     3.082000000
H    -4.187000000     3.171000000     2.584000000
O    -4.504000000    -0.920000000     5.553000000
H    -4.582000000     0.031000000     5.627000000
H    -4.155000000    -1.199000000     6.400000000
O    -3.147000000    -1.613000000    -4.014000000
H    -3.257000000    -2.192000000    -3.260000000
H    -3.489000000    -0.769000000    -3.720000000
O     1.675000000    -2.089000000     1.434000000
H     1.070000000    -1.776000000     0.761000000
H     2.481000000    -1.596000000     1.279000000
O     4.607000000    -2.083000000    -3.724000000
H     4.197000000    -1.378000000    -4.224000000
H     4.426000000    -2.874000000    -4.233000000
O     1.439000000     1.033000000    -6.752000000
H     1.256000000     1.460000000    -5.915000000
H     0.973000000     1.563000000    -7.399000000
O     3.747000000    -4.764000000     1.080000000
H     4.620000000    -4.605000000     1.440000000
H     3.843000000    -4.606000000     0.141000000
O     1.409000000     3.033000000     6.934000000
H     1.692000000     3.721000000     7.536000000
H     0.903000000     2.430000000     7.479000000
O     0.815000000     1.654000000    -4.344000000
H     1.145000000     2.447000000    -3.921000000
H     0.427000000     1.146000000    -3.631000000
O     3.495000000     0.343000000    -4.908000000
H     2.583000000     0.634000000    -4.905000000
H     3.907000000     0.841000000    -4.202000000
O    -4.671000000    -4.864000000     2.080000000
H    -5.585000000    -4.870000000     2.363000000
H    -4.464000000    -3.938000000     1.955000000
O     2.736000000    -5.592000000    -2.215000000
H     1.912000000    -5.618000000    -1.729000000
H     3.306000000    -6.206000000    -1.753000000
O    -0.917000000    -1.201000000     4.187000000
H    -0.115000000    -0.693000000     4.307000000
H    -1.585000000    -0.548000000     3.978000000
O    -2.435000000     5.788000000     3.187000000
H    -1.507000000     5.705000000     2.968000000
H    -2.481000000     5.577000000     4.119000000
O    -4.577000000     0.246000000    -0.828000000
H    -5.450000000    -0.126000000    -0.950000000
H    -4.710000000     1.193000000    -0.879000000
O    -6.055000000    -2.037000000     3.651000000
H    -6.568000000    -1.235000000     3.553000000
H    -5.300000000    -1.775000000     4.178000000
O     0.366000000     7.221000000     5.042000000
H    -0.396000000     7.799000000     5.019000000
H     0.027000000     6.392000000     5.380000000
O    -4.173000000     1.677000000    -4.318000000
H    -4.421000000     2.298000000    -5.003000000
H    -3.357000000     1.288000000    -4.631000000
O     5.048000000    -3.217000000    -1.312000000
H     4.831000000    -2.712000000    -2.095000000
H     4.879000000    -2.617000000    -0.585000000
O     6.163000000     3.295000000    -1.144000000
H     5.334000000     3.437000000    -0.687000000
H     6.773000000     3.028000000    -0.456000000
O    -4.013000000    -1.941000000     1.101000000
H    -4.051000000    -1.323000000     0.371000000
H    -4.727000000    -1.671000000     1.680000000
O    -5.105000000     4.995000000     2.545000000
H    -4.203000000     5.313000000     2.521000000
H    -5.628000000     5.772000000     2.742000000
O     0.161000000     5.261000000     1.828000000
H     0.288000000     5.183000000     0.883000000
H     0.478000000     4.430000000     2.181000000
O     1.133000000     0.962000000     4.608000000
H     1.067000000     1.350000000     5.481000000
H     1.120000000     1.711000000     4.012000000
O     4.671000000     0.592000000    -1.664000000
H     5.397000000     1.143000000    -1.372000000
H     4.923000000    -0.294000000    -1.401000000
O    -1.600000000    -3.094000000     2.056000000
H    -2.201000000    -2.568000000     1.528000000
H    -1.225000000    -2.474000000     2.681000000
O    -0.213000000     4.306000000     4.972000000
H    -0.190000000     3.781000000     4.173000000
H     0.481000000     3.939000000     5.520000000
O    -1.674000000     1.468000000     6.038000000
H    -0.968000000     0.859000000     5.821000000
H    -1.754000000     2.026000000     5.264000000
O     0.243000000     5.329000000    -0.772000000
H    -0.421000000     4.925000000    -1.331000000
H    -0.154000000     6.151000000    -0.484000000
O     3.877000000     3.624000000     0.315000000
H     3.423000000     4.340000000    -0.129000000
H     3.335000000     3.434000000     1.081000000
