144
-2817.85337
O     1.035000000    -4.968000000     2.414000000
H     0.600000000    -5.695000000     1.969000000
H     0.404000000    -4.249000000     2.371000000
O     5.350000000    -0.205000000    -1.649000000
H     4.797000000    -0.969000000    -1.486000000
H     5.079000000     0.106000000    -2.513000000
O     0.273000000     2.513000000    -8.152000000
H     1.087000000     2.961000000    -8.381000000
H     0.404000000     2.227000000    -7.248000000
O     1.318000000    -4.714000000    -2.140000000
H     2.209000000    -4.976000000    -1.909000000
H     0.782000000    -5.014000000    -1.405000000
O     2.282000000    -5.011000000     5.011000000
H     1.988000000    -4.155000000     5.321000000
H     1.948000000    -5.071000000     4.116000000
O     1.572000000     2.462000000    -5.598000000
H     1.875000000     3.315000000    -5.908000000
H     0.676000000     2.620000000    -5.299000000
O    -3.050000000    -5.944000000    -2.436000000
H    -3.038000000    -6.879000000    -2.639000000
H    -2.272000000    -5.595000000    -2.871000000
O    -1.040000000     0.711000000     5.057000000
H    -0.286000000     1.264000000     4.853000000
H    -0.933000000    -0.057000000     4.496000000
O     3.193000000    -3.606000000     1.959000000
H     3.173000000    -2.919000000     2.625000000
H     2.453000000    -4.173000000     2.178000000
O    -3.614000000     0.815000000     1.803000000
H    -3.771000000     1.100000000     2.703000000
H    -3.086000000     0.021000000     1.891000000
O    -1.076000000     2.984000000    -4.789000000
H    -1.234000000     3.864000000    -4.446000000
H    -1.800000000     2.460000000    -4.445000000
O    -4.798000000    -1.572000000     6.154000000
H    -4.218000000    -0.919000000     6.545000000
H    -4.303000000    -1.918000000     5.412000000
O    -0.796000000    -5.072000000    -4.049000000
H    -0.678000000    -4.549000000    -4.841000000
H    -0.006000000    -4.909000000    -3.534000000
O     1.414000000     5.842000000    -0.680000000
H     1.247000000     5.453000000     0.178000000
H     0.719000000     6.492000000    -0.787000000
O    -0.489000000     3.787000000     4.031000000
H     0.102000000     3.045000000     4.156000000
H    -0.548000000     4.194000000     4.895000000
O     0.627000000     5.559000000     2.154000000
H     0.330000000     6.394000000     2.516000000
H     0.332000000     4.905000000     2.787000000
O    -3.152000000    -2.493000000     4.221000000
H    -2.335000000    -2.258000000     3.781000000
H    -3.520000000    -3.195000000     3.685000000
O     4.296000000     5.338000000     1.416000000
H     3.533000000     4.769000000     1.314000000
H     4.988000000     4.901000000     0.920000000
O    -4.080000000     2.654000000    -4.431000000
H    -3.934000000     3.130000000    -3.613000000
H    -4.805000000     2.060000000    -4.237000000
O     1.360000000     1.884000000     4.627000000
H     1.860000000     1.745000000     3.823000000
H     2.015000000     2.144000000     5.275000000
O     0.592000000    -0.209000000    -6.475000000
H     0.990000000    -0.513000000    -7.291000000
H    -0.221000000     0.217000000    -6.749000000
O     3.468000000     5.365000000    -2.426000000
H     2.679000000     5.407000000    -1.886000000
H     3.560000000     4.437000000    -2.644000000
O    -4.401000000    -1.663000000    -1.978000000
H    -3.799000000    -1.573000000    -2.717000000
H    -4.657000000    -2.585000000    -1.989000000
O    -3.874000000    -5.254000000     3.660000000
H    -4.401000000    -5.016000000     4.423000000
H    -4.268000000    -6.066000000     3.340000000
O    -1.953000000     1.015000000    -6.546000000
H    -1.483000000     1.827000000    -6.353000000
H    -2.661000000     1.282000000    -7.132000000
O    -2.674000000     2.924000000     0.144000000
H    -1.983000000     2.264000000     0.196000000
H    -2.921000000     3.083000000     1.055000000
O    -5.710000000    -1.749000000     3.383000000
H    -5.511000000    -0.884000000     3.741000000
H    -4.967000000    -1.949000000     2.814000000
O     3.483000000     0.273000000    -4.736000000
H     3.459000000    -0.371000000    -4.028000000
H     2.571000000     0.546000000    -4.842000000
O     3.417000000     2.761000000    -3.384000000
H     4.144000000     2.204000000    -3.663000000
H     2.656000000     2.411000000    -3.848000000
O    -0.394000000    -0.875000000     7.605000000
H    -0.261000000    -1.566000000     6.956000000
H    -1.001000000    -0.266000000     7.185000000
O     3.710000000    -1.938000000    -2.802000000
H     3.758000000    -2.831000000    -3.145000000
H     3.145000000    -2.008000000    -2.033000000
O    -3.394000000    -0.323000000    -4.705000000
H    -4.148000000     0.016000000    -5.187000000
H    -2.646000000     0.152000000    -5.066000000
O    -4.095000000     3.901000000    -1.922000000
H    -3.526000000     3.679000000    -1.185000000
H    -4.977000000     3.907000000    -1.550000000
O     4.075000000     2.334000000    -0.149000000
H     4.659000000     1.598000000    -0.333000000
H     3.551000000     2.427000000    -0.945000000
O    -2.096000000    -1.936000000    -6.941000000
H    -2.798000000    -1.578000000    -7.485000000
H    -1.754000000    -1.180000000    -6.463000000
O    -5.181000000     0.636000000    -0.267000000
H    -4.523000000     0.682000000     0.427000000
H    -4.821000000     0.012000000    -0.897000000
O    -4.123000000    -2.407000000     1.239000000
H    -4.516000000    -2.245000000     0.382000000
H    -3.427000000    -3.041000000     1.067000000
O     3.022000000    -1.130000000     3.855000000
H     3.948000000    -1.277000000     3.662000000
H     2.839000000    -0.259000000     3.502000000
O    -4.147000000     1.595000000     4.163000000
H    -3.520000000     1.564000000     4.885000000
H    -4.972000000     1.302000000     4.549000000
O     1.115000000    -2.344000000     5.094000000
H     0.247000000    -2.185000000     4.725000000
H     1.701000000    -1.793000000     4.574000000
O    -1.714000000    -6.380000000     2.403000000
H    -1.376000000    -7.035000000     3.013000000
H    -2.207000000    -5.771000000     2.953000000
O     2.650000000    -1.712000000    -0.466000000
H     2.523000000    -2.187000000     0.356000000
H     1.766000000    -1.462000000    -0.736000000
O    -2.200000000    -4.260000000     0.616000000
H    -2.173000000    -5.176000000     0.891000000
H    -1.581000000    -3.817000000     1.197000000
O    -1.562000000    -4.119000000     5.826000000
H    -2.158000000    -4.179000000     5.080000000
H    -0.801000000    -3.647000000     5.488000000
O    -3.228000000     0.531000000     6.775000000
H    -2.503000000     0.928000000     6.293000000
H    -3.384000000     1.127000000     7.508000000
O     3.756000000     1.438000000     2.819000000
H     4.707000000     1.331000000     2.792000000
H     3.533000000     1.811000000     1.966000000
O    -1.169000000     5.715000000    -3.998000000
H    -1.092000000     6.254000000    -3.211000000
H    -0.435000000     5.990000000    -4.548000000
O     2.816000000    -2.930000000     7.544000000
H     2.155000000    -2.734000000     6.881000000
H     3.647000000    -2.699000000     7.129000000
