144
-2816.57253
O    -5.674000000     1.597000000    -1.446000000
H    -6.572000000     1.907000000    -1.568000000
H    -5.772000000     0.715000000    -1.087000000
O    -0.624000000    -5.387000000     1.025000000
H    -0.504000000    -5.974000000     1.771000000
H    -0.850000000    -4.543000000     1.417000000
O     7.071000000     1.517000000    -3.976000000
H     6.117000000     1.450000000    -3.942000000
H     7.360000000     0.665000000    -4.302000000
O     0.617000000     2.457000000    -5.274000000
H     0.248000000     3.078000000    -4.646000000
H    -0.019000000     2.432000000    -5.988000000
O     0.869000000    -5.019000000     5.225000000
H     1.314000000    -4.526000000     5.914000000
H     1.332000000    -4.780000000     4.422000000
O     3.286000000     5.108000000    -1.059000000
H     2.366000000     5.265000000    -0.848000000
H     3.300000000     5.007000000    -2.011000000
O     1.087000000    -0.757000000    -3.788000000
H     1.732000000    -0.827000000    -4.492000000
H     0.712000000     0.117000000    -3.894000000
O    -2.143000000     2.096000000     1.174000000
H    -2.329000000     1.692000000     2.022000000
H    -1.920000000     1.362000000     0.602000000
O     1.373000000    -0.118000000     4.621000000
H     1.326000000     0.280000000     5.491000000
H     1.629000000     0.600000000     4.043000000
O     1.237000000    -6.238000000    -0.591000000
H     1.012000000    -5.920000000    -1.465000000
H     0.564000000    -5.865000000    -0.020000000
O     4.504000000    -0.645000000    -0.072000000
H     3.736000000    -0.351000000    -0.562000000
H     5.239000000    -0.501000000    -0.669000000
O    -4.525000000    -0.853000000     2.731000000
H    -3.771000000    -1.384000000     2.478000000
H    -4.180000000     0.037000000     2.799000000
O    -2.401000000     4.330000000    -0.548000000
H    -2.345000000     3.682000000     0.154000000
H    -2.639000000     5.144000000    -0.104000000
O    -2.765000000     0.925000000     3.751000000
H    -2.845000000     1.661000000     4.358000000
H    -2.425000000     0.208000000     4.287000000
O     4.217000000     1.038000000    -3.392000000
H     4.630000000     0.190000000    -3.229000000
H     3.682000000     0.897000000    -4.173000000
O     5.152000000     2.840000000    -0.769000000
H     4.835000000     2.695000000    -1.660000000
H     4.526000000     3.457000000    -0.389000000
O     0.110000000     3.678000000     2.291000000
H     0.726000000     3.190000000     2.837000000
H    -0.262000000     3.022000000     1.702000000
O     0.432000000     5.530000000     0.053000000
H    -0.339000000     5.233000000    -0.429000000
H     0.224000000     5.353000000     0.970000000
O    -1.062000000    -1.323000000     4.649000000
H    -1.051000000    -1.696000000     3.768000000
H    -0.193000000    -0.936000000     4.756000000
O     4.825000000     4.007000000     2.067000000
H     4.447000000     3.128000000     2.076000000
H     5.658000000     3.914000000     2.529000000
O    -4.070000000    -2.021000000    -3.015000000
H    -4.765000000    -2.126000000    -3.664000000
H    -4.401000000    -1.354000000    -2.414000000
O     2.250000000     2.298000000     3.481000000
H     3.113000000     1.964000000     3.236000000
H     2.432000000     3.116000000     3.944000000
O     4.120000000     7.798000000    -1.472000000
H     3.389000000     8.371000000    -1.241000000
H     3.924000000     6.971000000    -1.030000000
O     2.651000000     5.978000000     2.274000000
H     3.210000000     5.441000000     1.713000000
H     1.759000000     5.769000000     1.995000000
O     2.859000000     1.918000000    -7.270000000
H     3.582000000     1.374000000    -6.958000000
H     2.200000000     1.860000000    -6.579000000
O    -1.052000000    -6.629000000     4.057000000
H    -0.418000000    -5.948000000     4.282000000
H    -0.537000000    -7.435000000     4.025000000
O     5.630000000    -1.417000000     3.175000000
H     4.903000000    -1.668000000     3.744000000
H     5.773000000    -2.181000000     2.616000000
O     3.180000000     4.287000000    -3.617000000
H     2.715000000     4.993000000    -4.066000000
H     2.927000000     3.494000000    -4.089000000
O    -4.541000000    -4.044000000    -0.298000000
H    -3.958000000    -4.568000000    -0.848000000
H    -3.989000000    -3.332000000     0.025000000
O    -2.828000000    -4.887000000     3.030000000
H    -2.384000000    -4.100000000     2.713000000
H    -2.136000000    -5.404000000     3.441000000
O    -2.428000000    -0.181000000    -5.243000000
H    -2.842000000     0.276000000    -4.511000000
H    -2.138000000    -1.015000000    -4.872000000
O    -3.470000000     1.107000000    -2.922000000
H    -2.944000000     1.900000000    -2.815000000
H    -4.250000000     1.264000000    -2.390000000
O     1.439000000    -2.540000000    -1.764000000
H     1.069000000    -3.238000000    -2.305000000
H     1.420000000    -1.766000000    -2.327000000
O    -1.823000000    -6.323000000    -1.604000000
H    -1.375000000    -5.842000000    -0.908000000
H    -2.249000000    -5.645000000    -2.128000000
O    -4.228000000    -4.808000000     5.374000000
H    -3.770000000    -5.589000000     5.685000000
H    -3.690000000    -4.487000000     4.651000000
O    -5.659000000    -0.622000000     5.225000000
H    -5.037000000    -0.767000000     4.512000000
H    -5.939000000    -1.501000000     5.481000000
O    -3.349000000    -4.468000000    -2.779000000
H    -3.143000000    -4.517000000    -3.712000000
H    -3.657000000    -3.571000000    -2.649000000
O    -1.570000000    -3.826000000     5.964000000
H    -0.820000000    -4.153000000     5.469000000
H    -1.488000000    -2.873000000     5.922000000
O     7.728000000     1.956000000    -1.297000000
H     7.654000000     1.866000000    -2.248000000
H     6.917000000     2.392000000    -1.034000000
O    -6.617000000    -2.344000000     2.939000000
H    -5.721000000    -2.014000000     2.871000000
H    -7.164000000    -1.607000000     2.669000000
O    -5.195000000    -5.706000000     2.152000000
H    -5.056000000    -4.985000000     1.538000000
H    -4.429000000    -5.684000000     2.726000000
O     3.091000000    -2.198000000     4.164000000
H     2.692000000    -2.423000000     3.323000000
H     2.619000000    -1.417000000     4.452000000
O    -3.817000000     2.597000000    -5.680000000
H    -3.514000000     1.824000000    -5.203000000
H    -4.757000000     2.634000000    -5.503000000
O    -5.013000000    -0.625000000    -0.206000000
H    -5.342000000    -0.269000000     0.619000000
H    -4.306000000    -1.217000000     0.053000000
O     1.481000000    -4.004000000     2.848000000
H     2.190000000    -3.831000000     2.229000000
H     0.733000000    -3.520000000     2.498000000
O     3.083000000    -2.839000000     0.579000000
H     2.439000000    -2.637000000    -0.100000000
H     3.754000000    -2.163000000     0.482000000
O     4.765000000     1.226000000     2.379000000
H     5.562000000     0.945000000     2.829000000
H     4.569000000     0.513000000     1.773000000
O    -1.041000000     4.023000000    -3.059000000
H    -1.360000000     3.808000000    -2.183000000
H    -1.259000000     4.948000000    -3.174000000
