144
-2798.56764
O    -2.423000000     5.029000000     4.825000000
H    -2.821000000     4.165000000     4.722000000
H    -1.716000000     5.046000000     4.179000000
O     2.601000000    -4.616000000     4.892000000
H     2.440000000    -5.118000000     4.092000000
H     1.737000000    -4.524000000     5.295000000
O     4.408000000    -5.782000000     1.426000000
H     4.940000000    -5.170000000     1.934000000
H     3.660000000    -5.975000000     1.990000000
O     1.767000000     5.558000000    -0.204000000
H     1.437000000     6.323000000    -0.675000000
H     1.006000000     4.982000000    -0.121000000
O     0.573000000     8.185000000    -0.800000000
H     0.103000000     8.501000000    -0.028000000
H    -0.027000000     7.560000000    -1.206000000
O    -5.376000000     4.941000000     2.478000000
H    -4.974000000     4.077000000     2.568000000
H    -5.450000000     5.074000000     1.533000000
O    -3.980000000     7.857000000     0.912000000
H    -4.922000000     7.721000000     0.808000000
H    -3.652000000     7.020000000     1.239000000
O    -1.012000000     5.333000000     2.463000000
H    -0.749000000     4.951000000     1.626000000
H    -0.822000000     6.267000000     2.371000000
O    -0.586000000    -6.837000000    -3.530000000
H    -0.906000000    -5.982000000    -3.817000000
H    -1.119000000    -7.468000000    -4.015000000
O     5.149000000    -2.578000000    -3.333000000
H     5.483000000    -1.703000000    -3.136000000
H     5.933000000    -3.119000000    -3.422000000
O     4.769000000    -2.817000000     0.114000000
H     4.172000000    -2.080000000    -0.021000000
H     4.460000000    -3.231000000     0.919000000
O     3.453000000    -2.777000000     2.435000000
H     3.520000000    -1.919000000     2.853000000
H     2.608000000    -3.120000000     2.725000000
O     1.956000000     3.407000000    -3.514000000
H     1.025000000     3.615000000    -3.437000000
H     2.118000000     3.375000000    -4.457000000
O     2.086000000     4.116000000     2.357000000
H     2.779000000     3.540000000     2.032000000
H     1.672000000     4.462000000     1.567000000
O    -6.105000000     0.435000000     2.434000000
H    -6.820000000     0.492000000     1.801000000
H    -5.368000000     0.867000000     2.003000000
O     4.032000000    -0.154000000    -1.378000000
H     3.979000000     0.722000000    -0.995000000
H     4.738000000    -0.092000000    -2.021000000
O     1.382000000    -6.815000000    -1.329000000
H     1.816000000    -7.389000000    -0.697000000
H     2.099000000    -6.385000000    -1.795000000
O     0.701000000    -1.663000000     3.885000000
H     0.290000000    -1.513000000     4.736000000
H     0.062000000    -1.338000000     3.250000000
O    -1.184000000    -4.943000000    -0.331000000
H    -1.642000000    -5.479000000     0.316000000
H    -0.699000000    -5.573000000    -0.864000000
O     0.275000000     2.886000000     4.376000000
H     0.592000000     3.283000000     3.565000000
H    -0.496000000     2.384000000     4.112000000
O    -3.638000000     3.181000000     2.986000000
H    -3.095000000     2.555000000     3.464000000
H    -3.109000000     3.425000000     2.226000000
O     2.991000000     2.378000000    -1.154000000
H     2.241000000     2.219000000    -0.581000000
H     2.605000000     2.562000000    -2.010000000
O     4.145000000     2.825000000     1.218000000
H     5.057000000     3.113000000     1.202000000
H     3.983000000     2.493000000     0.335000000
O     1.080000000     0.281000000    -5.171000000
H     1.408000000     0.396000000    -4.279000000
H     0.703000000    -0.599000000    -5.175000000
O    -2.907000000    -1.138000000    -5.918000000
H    -2.136000000    -1.513000000    -5.494000000
H    -3.625000000    -1.721000000    -5.669000000
O    -6.115000000     3.003000000    -0.679000000
H    -6.741000000     2.279000000    -0.699000000
H    -6.652000000     3.787000000    -0.794000000
O    -1.103000000     6.004000000    -1.303000000
H    -2.046000000     6.116000000    -1.417000000
H    -1.017000000     5.193000000    -0.801000000
O     2.076000000     5.680000000     4.561000000
H     1.466000000     6.354000000     4.259000000
H     2.266000000     5.162000000     3.779000000
O    -2.280000000     2.179000000    -3.734000000
H    -1.447000000     2.556000000    -3.450000000
H    -2.128000000     1.917000000    -4.642000000
O     2.313000000    -6.581000000     2.923000000
H     2.512000000    -7.266000000     3.562000000
H     1.792000000    -7.021000000     2.253000000
O     2.599000000     1.816000000     5.562000000
H     3.043000000     2.599000000     5.887000000
H     1.826000000     2.149000000     5.108000000
O     5.825000000     0.742000000     3.756000000
H     4.999000000     0.299000000     3.562000000
H     6.245000000     0.850000000     2.903000000
O     2.748000000    -2.620000000    -4.671000000
H     2.332000000    -2.287000000    -3.876000000
H     3.638000000    -2.845000000    -4.400000000
O    -2.041000000    -4.224000000    -4.163000000
H    -2.310000000    -4.099000000    -3.252000000
H    -2.856000000    -4.408000000    -4.629000000
O    -4.622000000    -1.539000000     0.815000000
H    -4.273000000    -1.691000000     1.693000000
H    -4.345000000    -0.649000000     0.597000000
O     4.333000000    -5.776000000    -1.062000000
H     4.929000000    -5.057000000    -1.274000000
H     4.271000000    -5.761000000    -0.107000000
O    -5.054000000     2.904000000    -3.287000000
H    -5.098000000     2.955000000    -2.332000000
H    -4.145000000     2.669000000    -3.473000000
O     1.546000000    -0.306000000    -2.689000000
H     2.436000000    -0.271000000    -2.338000000
H     0.986000000    -0.364000000    -1.914000000
O     4.282000000     6.395000000     0.373000000
H     3.371000000     6.133000000     0.240000000
H     4.340000000     6.591000000     1.309000000
O    -1.520000000    -0.555000000     2.472000000
H    -1.325000000    -0.208000000     1.602000000
H    -1.872000000    -1.430000000     2.308000000
O    -0.419000000     4.599000000    -3.893000000
H    -1.141000000     4.704000000    -4.512000000
H    -0.347000000     5.451000000    -3.462000000
O    -3.331000000    -3.506000000    -1.510000000
H    -2.597000000    -3.854000000    -1.003000000
H    -3.511000000    -2.653000000    -1.116000000
O    -1.834000000    -3.429000000     2.057000000
H    -1.281000000    -3.752000000     1.345000000
H    -2.434000000    -4.152000000     2.239000000
O    -3.839000000     4.789000000    -0.849000000
H    -4.627000000     4.367000000    -0.507000000
H    -3.134000000     4.170000000    -0.659000000
O    -0.444000000    -2.090000000    -5.527000000
H    -0.396000000    -2.984000000    -5.188000000
H    -0.404000000    -2.192000000    -6.478000000
O    -4.083000000     1.170000000     0.427000000
H    -4.852000000     1.476000000    -0.054000000
H    -3.493000000     1.924000000     0.440000000
O    -1.947000000     1.268000000     4.297000000
H    -2.728000000     0.901000000     4.710000000
H    -1.679000000     0.606000000     3.660000000
O     3.270000000    -0.447000000     4.119000000
H     3.129000000     0.297000000     4.704000000
H     2.416000000    -0.878000000     4.070000000
