144
-2791.09295
O    -0.805000000    -0.366000000     7.554000000
H    -1.177000000    -0.454000000     6.676000000
H    -0.106000000    -1.019000000     7.585000000
O     2.335000000    -1.717000000     3.790000000
H     2.253000000    -0.764000000     3.842000000
H     2.759000000    -1.966000000     4.611000000
O     3.502000000    -5.061000000    -3.416000000
H     2.567000000    -4.906000000    -3.280000000
H     3.931000000    -4.301000000    -3.023000000
O     2.276000000     4.564000000     2.600000000
H     2.649000000     3.856000000     3.126000000
H     1.366000000     4.303000000     2.458000000
O    -0.161000000     5.577000000    -0.541000000
H    -0.495000000     4.741000000    -0.215000000
H    -0.486000000     6.225000000     0.084000000
O    -3.690000000     4.200000000     5.496000000
H    -3.298000000     3.591000000     4.870000000
H    -4.633000000     4.086000000     5.382000000
O    -0.634000000     5.013000000     4.006000000
H    -0.809000000     4.376000000     3.314000000
H    -1.153000000     5.780000000     3.764000000
O    -0.970000000    -0.683000000    -5.240000000
H    -0.404000000     0.081000000    -5.124000000
H    -1.370000000    -0.555000000    -6.101000000
O     1.222000000    -7.520000000    -4.187000000
H     0.336000000    -7.732000000    -4.482000000
H     1.119000000    -6.714000000    -3.680000000
O     1.035000000    -6.185000000     1.238000000
H     1.818000000    -5.823000000     1.654000000
H     0.727000000    -6.855000000     1.848000000
O     5.562000000    -0.261000000    -1.475000000
H     5.391000000    -0.058000000    -0.555000000
H     5.277000000     0.519000000    -1.950000000
O     1.930000000     1.139000000     5.211000000
H     2.425000000     1.901000000     4.909000000
H     1.066000000     1.487000000     5.433000000
O    -2.027000000     7.309000000     2.636000000
H    -1.537000000     7.229000000     1.817000000
H    -2.026000000     8.248000000     2.825000000
O     2.642000000     4.885000000    -1.347000000
H     1.725000000     5.067000000    -1.142000000
H     2.714000000     3.932000000    -1.298000000
O     1.049000000     6.403000000     5.937000000
H     1.252000000     7.317000000     5.734000000
H     0.591000000     6.081000000     5.161000000
O    -2.386000000    -2.725000000    -0.109000000
H    -1.657000000    -3.334000000     0.009000000
H    -2.436000000    -2.592000000    -1.056000000
O    -4.361000000    -2.545000000     2.389000000
H    -3.544000000    -2.495000000     1.893000000
H    -5.042000000    -2.618000000     1.721000000
O     5.252000000    -3.292000000     1.970000000
H     5.470000000    -2.381000000     1.770000000
H     5.925000000    -3.568000000     2.592000000
O    -5.218000000    -1.663000000    -3.342000000
H    -4.301000000    -1.935000000    -3.307000000
H    -5.697000000    -2.464000000    -3.555000000
O    -0.245000000     2.464000000     6.109000000
H    -0.991000000     2.475000000     5.509000000
H    -0.386000000     3.219000000     6.680000000
O     0.926000000    -4.935000000    -3.082000000
H     0.242000000    -4.924000000    -2.413000000
H     0.664000000    -4.257000000    -3.705000000
O    -5.351000000     3.664000000    -2.830000000
H    -5.910000000     3.599000000    -2.056000000
H    -4.500000000     3.940000000    -2.488000000
O    -3.061000000    -6.971000000    -2.633000000
H    -3.257000000    -7.546000000    -1.893000000
H    -2.426000000    -6.344000000    -2.287000000
O    -2.615000000     2.265000000     3.613000000
H    -2.956000000     1.516000000     3.124000000
H    -1.866000000     2.566000000     3.098000000
O    -2.572000000    -2.598000000    -2.832000000
H    -2.069000000    -1.929000000    -3.298000000
H    -2.503000000    -3.377000000    -3.384000000
O    -1.139000000     3.214000000    -3.716000000
H    -0.872000000     3.874000000    -4.356000000
H    -0.344000000     2.707000000    -3.548000000
O    -3.815000000     4.160000000     1.858000000
H    -3.277000000     3.916000000     2.612000000
H    -3.247000000     4.013000000     1.102000000
O    -2.848000000     4.317000000    -2.018000000
H    -2.424000000     3.835000000    -1.308000000
H    -2.317000000     4.123000000    -2.790000000
O    -1.067000000    -1.505000000     5.043000000
H    -0.403000000    -2.154000000     5.274000000
H    -0.926000000    -1.340000000     4.111000000
O     3.851000000    -4.010000000    -0.078000000
H     3.148000000    -4.552000000     0.279000000
H     4.393000000    -3.791000000     0.679000000
O    -1.091000000     7.928000000     0.304000000
H    -0.470000000     8.629000000     0.500000000
H    -1.355000000     8.088000000    -0.602000000
O     4.818000000    -2.654000000    -2.589000000
H     4.690000000    -2.859000000    -1.663000000
H     4.822000000    -1.697000000    -2.623000000
O     3.103000000    -5.215000000     2.966000000
H     3.829000000    -4.591000000     2.957000000
H     3.482000000    -6.018000000     3.323000000
O    -3.959000000    -0.292000000    -1.167000000
H    -3.008000000    -0.306000000    -1.277000000
H    -4.305000000    -0.437000000    -2.047000000
O     0.361000000    -3.773000000     3.651000000
H     1.139000000    -4.295000000     3.849000000
H     0.705000000    -2.961000000     3.281000000
O     2.418000000     2.159000000    -0.750000000
H     1.706000000     1.525000000    -0.840000000
H     2.646000000     2.133000000     0.179000000
O     4.336000000     0.658000000     1.057000000
H     4.662000000     0.504000000     1.943000000
H     3.934000000    -0.173000000     0.803000000
O     0.824000000     1.549000000    -4.079000000
H     1.238000000     1.976000000    -4.830000000
H     1.390000000     0.802000000    -3.886000000
O     2.382000000    -0.508000000    -3.579000000
H     1.946000000    -1.332000000    -3.362000000
H     3.128000000    -0.767000000    -4.121000000
O    -0.985000000    -5.421000000    -0.568000000
H    -1.814000000    -5.741000000    -0.213000000
H    -0.353000000    -5.562000000     0.136000000
O    -0.527000000     6.519000000    -3.372000000
H    -0.916000000     7.349000000    -3.097000000
H    -0.222000000     6.115000000    -2.559000000
O    -4.784000000     6.896000000     2.703000000
H    -3.931000000     7.148000000     3.057000000
H    -4.661000000     5.996000000     2.401000000
O    -1.765000000    -5.130000000     4.076000000
H    -0.952000000    -4.648000000     3.928000000
H    -2.030000000    -4.887000000     4.963000000
O    -5.787000000     3.412000000    -0.078000000
H    -6.025000000     4.310000000    -0.309000000
H    -5.075000000     3.509000000     0.555000000
O    -3.668000000     1.581000000    -5.229000000
H    -3.603000000     0.935000000    -5.933000000
H    -2.771000000     1.890000000    -5.105000000
O    -3.706000000     0.461000000     2.021000000
H    -4.117000000    -0.340000000     2.344000000
H    -3.667000000     0.345000000     1.072000000
O     0.651000000    -2.961000000    -5.121000000
H     0.182000000    -2.136000000    -5.246000000
H     1.002000000    -3.169000000    -5.987000000
O    -4.254000000     6.207000000    -0.442000000
H    -3.701000000     6.517000000     0.275000000
H    -3.642000000     6.035000000    -1.159000000
