144
-2797.34052
O     1.432000000     1.352000000     5.037000000
H     1.611000000     1.023000000     4.156000000
H     0.933000000     2.156000000     4.894000000
O     5.405000000    -0.777000000    -2.143000000
H     5.210000000    -1.273000000    -1.348000000
H     6.091000000    -1.283000000    -2.578000000
O    -4.005000000     6.352000000     4.353000000
H    -3.744000000     7.258000000     4.517000000
H    -3.273000000     5.976000000     3.864000000
O     2.380000000     4.966000000    -0.680000000
H     1.479000000     5.277000000    -0.587000000
H     2.871000000     5.736000000    -0.967000000
O    -0.545000000     6.142000000     2.706000000
H     0.031000000     6.517000000     2.040000000
H    -1.421000000     6.202000000     2.326000000
O    -0.264000000     5.200000000    -0.663000000
H    -0.783000000     5.991000000    -0.813000000
H    -0.881000000     4.578000000    -0.277000000
O    -3.061000000     5.413000000     1.378000000
H    -3.822000000     5.117000000     1.878000000
H    -2.560000000     4.615000000     1.210000000
O     1.794000000    -4.170000000     2.870000000
H     0.929000000    -4.578000000     2.910000000
H     1.741000000    -3.434000000     3.480000000
O     4.712000000    -3.638000000    -1.362000000
H     4.185000000    -3.270000000    -0.653000000
H     4.080000000    -4.086000000    -1.923000000
O     2.890000000     3.685000000     3.575000000
H     1.960000000     3.470000000     3.649000000
H     3.170000000     3.263000000     2.763000000
O     3.798000000     0.814000000    -5.204000000
H     4.639000000     0.687000000    -5.643000000
H     3.639000000     1.756000000    -5.260000000
O     4.380000000    -3.565000000     1.912000000
H     3.565000000    -3.644000000     2.408000000
H     5.070000000    -3.661000000     2.569000000
O    -5.346000000     2.260000000     0.373000000
H    -4.471000000     2.090000000     0.722000000
H    -5.894000000     2.378000000     1.148000000
O    -0.935000000    -2.344000000    -6.163000000
H    -0.149000000    -2.791000000    -5.850000000
H    -0.701000000    -1.416000000    -6.160000000
O     2.674000000    -4.881000000    -2.683000000
H     2.259000000    -5.208000000    -3.481000000
H     2.094000000    -5.166000000    -1.977000000
O    -2.815000000     3.155000000     4.183000000
H    -3.450000000     2.636000000     4.675000000
H    -2.753000000     2.717000000     3.334000000
O     7.507000000    -3.405000000    -1.821000000
H     7.907000000    -3.629000000    -0.981000000
H     6.574000000    -3.578000000    -1.696000000
O     4.711000000     0.914000000     2.507000000
H     4.340000000     1.672000000     2.055000000
H     5.172000000     1.285000000     3.259000000
O     1.102000000    -3.646000000    -5.058000000
H     1.748000000    -4.231000000    -4.662000000
H     1.623000000    -2.965000000    -5.482000000
O    -2.344000000    -0.999000000    -2.521000000
H    -1.567000000    -0.881000000    -1.973000000
H    -2.269000000    -1.894000000    -2.852000000
O    -1.605000000     3.661000000    -3.594000000
H    -2.079000000     3.725000000    -2.765000000
H    -1.644000000     4.543000000    -3.962000000
O    -0.120000000     3.872000000     4.331000000
H    -1.048000000     3.638000000     4.357000000
H    -0.084000000     4.640000000     3.760000000
O     1.264000000     6.533000000    -3.549000000
H     2.189000000     6.682000000    -3.351000000
H     0.833000000     6.534000000    -2.694000000
O    -4.772000000     0.158000000     2.601000000
H    -4.528000000     0.433000000     3.484000000
H    -4.218000000     0.685000000     2.024000000
O    -4.636000000     7.978000000     1.088000000
H    -3.875000000     7.416000000     0.940000000
H    -5.366000000     7.503000000     0.692000000
O    -3.672000000     6.620000000    -2.226000000
H    -3.791000000     5.775000000    -1.793000000
H    -2.957000000     7.037000000    -1.746000000
O    -0.891000000    -4.467000000    -3.341000000
H    -0.252000000    -4.528000000    -4.051000000
H    -1.631000000    -3.995000000    -3.725000000
O     2.692000000     3.519000000    -2.969000000
H     2.403000000     4.005000000    -2.196000000
H     3.346000000     2.905000000    -2.635000000
O    -3.942000000     3.821000000    -1.530000000
H    -3.354000000     3.746000000    -0.779000000
H    -4.667000000     3.229000000    -1.327000000
O    -1.861000000    -5.028000000     0.112000000
H    -2.378000000    -5.587000000    -0.468000000
H    -2.386000000    -4.232000000     0.207000000
O    -3.651000000    -2.838000000     0.383000000
H    -4.407000000    -2.863000000    -0.204000000
H    -3.773000000    -2.039000000     0.897000000
O     5.103000000    -3.689000000    -4.831000000
H     4.370000000    -3.243000000    -4.408000000
H     5.349000000    -3.113000000    -5.554000000
O     3.606000000     2.976000000     1.010000000
H     2.974000000     3.436000000     0.458000000
H     4.443000000     3.087000000     0.559000000
O    -4.592000000    -2.896000000     4.592000000
H    -3.955000000    -2.690000000     5.276000000
H    -4.195000000    -2.561000000     3.787000000
O     1.532000000     0.615000000     2.488000000
H     1.371000000     0.966000000     1.612000000
H     1.575000000    -0.333000000     2.363000000
O     0.926000000     2.126000000    -4.672000000
H     1.521000000     2.397000000    -3.973000000
H     0.428000000     2.916000000    -4.883000000
O     3.358000000    -1.718000000    -4.141000000
H     3.652000000    -0.912000000    -4.566000000
H     3.110000000    -1.446000000    -3.257000000
O     4.026000000    -6.314000000     1.189000000
H     4.001000000    -5.365000000     1.317000000
H     3.239000000    -6.635000000     1.629000000
O     7.659000000    -1.396000000     1.619000000
H     7.209000000    -0.991000000     2.361000000
H     7.009000000    -1.396000000     0.916000000
O     4.952000000    -1.202000000     0.574000000
H     4.860000000    -0.488000000     1.204000000
H     4.728000000    -1.989000000     1.070000000
O    -1.589000000    -4.533000000     2.924000000
H    -1.521000000    -4.592000000     1.971000000
H    -1.220000000    -5.356000000     3.242000000
O    -2.659000000     1.170000000    -3.959000000
H    -2.476000000     0.361000000    -3.482000000
H    -2.082000000     1.820000000    -3.558000000
O    -1.749000000    -2.013000000     4.322000000
H    -0.855000000    -1.783000000     4.575000000
H    -1.650000000    -2.795000000     3.778000000
O     1.369000000    -2.195000000     4.823000000
H     1.117000000    -1.973000000     5.719000000
H     2.277000000    -1.901000000     4.750000000
O     0.516000000    -5.778000000    -1.116000000
H    -0.041000000    -5.518000000    -0.382000000
H     0.015000000    -5.536000000    -1.895000000
O    -4.565000000     1.181000000     5.212000000
H    -3.994000000     0.597000000     5.712000000
H    -5.224000000     1.470000000     5.844000000
O    -6.104000000    -0.636000000     0.085000000
H    -5.804000000    -0.037000000     0.768000000
H    -6.047000000    -0.126000000    -0.724000000
O     4.522000000     1.925000000    -2.072000000
H     4.802000000     1.012000000    -2.005000000
H     5.054000000     2.387000000    -1.424000000
