144
-2811.72461
O     1.983000000     6.783000000     3.219000000
H     1.453000000     6.046000000     2.915000000
H     2.855000000     6.411000000     3.353000000
O     4.194000000     5.816000000     0.514000000
H     3.397000000     5.620000000     0.022000000
H     4.103000000     5.317000000     1.326000000
O    -3.262000000     2.059000000     2.781000000
H    -2.545000000     1.704000000     3.307000000
H    -3.328000000     1.464000000     2.034000000
O     5.605000000     2.037000000     2.860000000
H     5.516000000     1.345000000     3.514000000
H     5.452000000     2.847000000     3.346000000
O    -2.026000000    -4.810000000     3.048000000
H    -2.389000000    -5.384000000     2.375000000
H    -1.212000000    -4.479000000     2.667000000
O     0.552000000    -3.701000000     2.785000000
H     1.181000000    -3.176000000     2.291000000
H     0.307000000    -3.148000000     3.526000000
O     5.392000000     0.306000000    -2.090000000
H     5.241000000     0.162000000    -1.156000000
H     5.099000000     1.204000000    -2.244000000
O     2.967000000     3.353000000    -4.047000000
H     3.569000000     3.288000000    -3.306000000
H     3.535000000     3.472000000    -4.808000000
O     3.369000000    -0.097000000    -6.306000000
H     3.249000000    -0.855000000    -5.733000000
H     2.635000000     0.480000000    -6.095000000
O    -4.003000000    -1.943000000    -3.421000000
H    -3.993000000    -2.085000000    -4.368000000
H    -4.035000000    -0.991000000    -3.322000000
O     0.203000000    -1.898000000    -6.432000000
H    -0.065000000    -2.335000000    -7.240000000
H     0.007000000    -0.973000000    -6.583000000
O     1.392000000     5.706000000    -0.733000000
H     1.418000000     6.039000000    -1.630000000
H     0.544000000     5.267000000    -0.666000000
O     0.730000000     2.877000000    -5.280000000
H     1.592000000     2.863000000    -4.864000000
H     0.556000000     3.805000000    -5.440000000
O    -3.827000000    -2.267000000    -6.143000000
H    -4.655000000    -2.620000000    -6.469000000
H    -3.239000000    -2.300000000    -6.898000000
O    -1.288000000     2.838000000    -3.236000000
H    -1.910000000     2.135000000    -3.422000000
H    -0.709000000     2.852000000    -3.998000000
O    -4.458000000     0.577000000    -2.257000000
H    -4.536000000     1.212000000    -1.545000000
H    -5.069000000     0.889000000    -2.924000000
O    -1.984000000     1.133000000     8.476000000
H    -2.121000000     2.078000000     8.419000000
H    -1.943000000     0.842000000     7.565000000
O     2.365000000     2.134000000     4.888000000
H     1.758000000     2.314000000     4.170000000
H     2.603000000     1.214000000     4.776000000
O    -2.210000000    -4.845000000     0.254000000
H    -1.256000000    -4.782000000     0.203000000
H    -2.508000000    -4.711000000    -0.646000000
O    -1.250000000     1.457000000     5.923000000
H    -0.464000000     1.772000000     6.368000000
H    -0.989000000     1.371000000     5.006000000
O     5.130000000     0.135000000     0.785000000
H     6.034000000    -0.135000000     0.624000000
H     5.207000000     0.947000000     1.285000000
O    -6.249000000    -1.274000000     2.972000000
H    -7.092000000    -1.409000000     2.539000000
H    -5.821000000    -2.129000000     2.936000000
O     4.478000000    -2.364000000    -2.519000000
H     4.749000000    -1.508000000    -2.186000000
H     3.600000000    -2.216000000    -2.872000000
O    -3.760000000    -3.255000000     5.690000000
H    -4.411000000    -3.807000000     5.256000000
H    -3.082000000    -3.118000000     5.028000000
O     2.423000000    -1.159000000     5.943000000
H     1.564000000    -1.345000000     5.565000000
H     2.231000000    -0.784000000     6.802000000
O    -3.489000000     0.220000000     5.631000000
H    -2.655000000     0.688000000     5.645000000
H    -3.357000000    -0.487000000     4.999000000
O     0.123000000    -1.783000000     4.849000000
H    -0.455000000    -1.896000000     5.603000000
H    -0.073000000    -0.903000000     4.527000000
O    -0.497000000    -2.269000000     7.802000000
H     0.236000000    -2.800000000     8.113000000
H    -0.180000000    -1.367000000     7.860000000
O     3.559000000    -4.745000000    -4.365000000
H     3.546000000    -5.041000000    -3.454000000
H     4.480000000    -4.796000000    -4.620000000
O     5.253000000     3.012000000    -2.667000000
H     5.592000000     3.806000000    -2.254000000
H     5.888000000     2.809000000    -3.354000000
O     0.897000000     2.288000000     7.223000000
H     0.458000000     3.122000000     7.390000000
H     1.635000000     2.516000000     6.657000000
O    -0.755000000     3.282000000    -0.210000000
H    -0.927000000     3.246000000    -1.151000000
H    -0.371000000     2.429000000    -0.004000000
O     2.410000000    -2.072000000    -4.688000000
H     2.612000000    -3.005000000    -4.614000000
H     1.653000000    -2.036000000    -5.273000000
O     2.333000000    -2.017000000     0.956000000
H     2.838000000    -1.752000000     1.724000000
H     2.140000000    -1.197000000     0.501000000
O    -6.073000000     1.481000000     2.580000000
H    -6.085000000     0.544000000     2.775000000
H    -5.144000000     1.708000000     2.548000000
O    -5.559000000    -4.125000000     3.269000000
H    -6.068000000    -4.551000000     2.579000000
H    -4.648000000    -4.318000000     3.047000000
O    -0.137000000     1.080000000    -7.061000000
H    -0.971000000     1.547000000    -7.004000000
H     0.490000000     1.654000000    -6.621000000
O    -4.117000000    -2.837000000     0.926000000
H    -3.527000000    -3.591000000     0.948000000
H    -4.757000000    -3.053000000     0.248000000
O    -2.871000000    -1.804000000     3.618000000
H    -3.221000000    -1.772000000     2.727000000
H    -2.221000000    -1.102000000     3.644000000
O    -4.298000000     3.228000000     5.131000000
H    -4.073000000     2.334000000     4.873000000
H    -4.457000000     3.684000000     4.305000000
O    -0.119000000    -5.850000000    -2.781000000
H    -0.176000000    -5.033000000    -2.284000000
H     0.769000000    -6.167000000    -2.619000000
O    -0.719000000     5.341000000     5.740000000
H    -1.598000000     4.966000000     5.693000000
H    -0.391000000     5.296000000     4.842000000
O     0.336000000     4.568000000     2.538000000
H     0.209000000     3.710000000     2.943000000
H    -0.140000000     4.514000000     1.709000000
O     3.888000000    -1.249000000     3.129000000
H     4.190000000    -0.897000000     3.966000000
H     4.408000000    -0.786000000     2.472000000
O    -3.548000000     0.104000000     0.841000000
H    -2.879000000     0.008000000     0.162000000
H    -4.003000000    -0.738000000     0.849000000
O    -1.641000000    -3.685000000    -5.123000000
H    -2.481000000    -3.277000000    -5.332000000
H    -0.991000000    -3.133000000    -5.557000000
O    -2.587000000    -4.177000000    -2.437000000
H    -2.130000000    -4.163000000    -3.278000000
H    -3.131000000    -3.390000000    -2.448000000
O     0.734000000    -4.394000000    -0.237000000
H     1.512000000    -4.729000000    -0.682000000
H     1.062000000    -3.687000000     0.319000000
