144
-2800.91396
O     4.432000000    -2.033000000    -4.173000000
H     3.852000000    -2.465000000    -4.801000000
H     4.666000000    -2.722000000    -3.551000000
O    -2.643000000     2.805000000    -0.655000000
H    -3.359000000     2.463000000    -1.191000000
H    -1.860000000     2.375000000    -0.998000000
O     5.333000000     0.007000000     1.152000000
H     5.903000000    -0.757000000     1.066000000
H     4.696000000    -0.090000000     0.445000000
O     3.518000000     0.117000000    -1.038000000
H     3.696000000     0.111000000    -1.979000000
H     2.726000000    -0.411000000    -0.941000000
O    -3.757000000    -1.621000000     5.775000000
H    -3.829000000    -1.259000000     6.658000000
H    -3.230000000    -0.980000000     5.296000000
O     1.656000000     2.201000000     3.752000000
H     2.298000000     1.518000000     3.561000000
H     1.462000000     2.095000000     4.683000000
O    -3.264000000    -5.801000000     5.455000000
H    -3.758000000    -5.350000000     4.770000000
H    -3.456000000    -5.308000000     6.253000000
O    -1.612000000    -2.884000000     5.478000000
H    -1.550000000    -2.667000000     4.548000000
H    -2.479000000    -2.575000000     5.739000000
O    -3.993000000     1.398000000     1.590000000
H    -3.564000000     1.624000000     0.765000000
H    -4.734000000     2.000000000     1.648000000
O     6.029000000     2.918000000     2.135000000
H     5.942000000     1.970000000     2.234000000
H     5.340000000     3.160000000     1.516000000
O     1.149000000    -0.140000000    -5.265000000
H     1.869000000     0.233000000    -4.757000000
H     0.915000000    -0.941000000    -4.796000000
O    -4.145000000    -4.185000000     3.569000000
H    -3.320000000    -3.806000000     3.269000000
H    -4.794000000    -3.498000000     3.418000000
O     0.354000000     2.656000000    -5.722000000
H     0.356000000     1.703000000    -5.630000000
H    -0.271000000     2.959000000    -5.064000000
O    -0.158000000     7.679000000    -2.109000000
H    -0.067000000     6.845000000    -1.647000000
H     0.421000000     8.278000000    -1.637000000
O    -4.209000000    -2.070000000     0.493000000
H    -4.051000000    -1.127000000     0.542000000
H    -3.927000000    -2.314000000    -0.389000000
O    -3.383000000     5.013000000     2.024000000
H    -3.823000000     4.191000000     2.242000000
H    -2.717000000     5.114000000     2.704000000
O     2.668000000     0.300000000    -7.512000000
H     1.939000000     0.002000000    -6.968000000
H     3.235000000     0.782000000    -6.911000000
O    -1.950000000    -3.574000000    -2.088000000
H    -2.359000000    -2.739000000    -1.858000000
H    -2.222000000    -3.733000000    -2.991000000
O    -3.819000000     4.397000000    -3.548000000
H    -3.736000000     5.300000000    -3.241000000
H    -4.641000000     4.386000000    -4.039000000
O     0.796000000    -3.098000000     6.872000000
H    -0.065000000    -3.139000000     6.457000000
H     1.383000000    -2.799000000     6.177000000
O    -2.980000000     2.624000000     4.993000000
H    -3.263000000     1.722000000     4.843000000
H    -2.194000000     2.541000000     5.534000000
O     0.867000000    -2.874000000    -3.988000000
H     1.394000000    -3.662000000    -3.852000000
H     0.040000000    -3.059000000    -3.544000000
O     4.820000000    -4.236000000    -2.440000000
H     5.114000000    -5.122000000    -2.229000000
H     4.449000000    -3.905000000    -1.622000000
O     2.064000000     4.237000000    -4.232000000
H     1.130000000     4.376000000    -4.391000000
H     2.120000000     4.029000000    -3.299000000
O     4.230000000     5.582000000     2.237000000
H     3.932000000     5.877000000     3.098000000
H     3.432000000     5.295000000     1.793000000
O    -0.114000000    -7.704000000    -0.220000000
H    -0.811000000    -7.071000000    -0.394000000
H     0.694000000    -7.231000000    -0.419000000
O    -1.356000000     5.253000000    -0.589000000
H    -1.795000000     4.606000000    -0.037000000
H    -1.976000000     5.424000000    -1.298000000
O     5.616000000     2.223000000    -2.834000000
H     5.053000000     2.960000000    -2.598000000
H     6.117000000     2.536000000    -3.587000000
O    -5.999000000    -2.291000000     2.520000000
H    -5.396000000    -2.388000000     1.783000000
H    -6.188000000    -1.353000000     2.553000000
O     0.603000000     4.730000000     3.736000000
H     0.987000000     3.854000000     3.703000000
H     0.730000000     5.012000000     4.642000000
O    -2.717000000    -0.907000000    -2.176000000
H    -2.269000000    -0.330000000    -1.557000000
H    -3.055000000    -0.318000000    -2.851000000
O    -4.454000000    -6.069000000     1.455000000
H    -4.416000000    -5.358000000     2.094000000
H    -3.587000000    -6.073000000     1.049000000
O     1.144000000     5.399000000     1.067000000
H     0.379000000     5.299000000     0.501000000
H     0.839000000     5.126000000     1.932000000
O     0.418000000    -0.786000000     4.965000000
H    -0.249000000    -1.079000000     4.345000000
H     0.061000000     0.021000000     5.337000000
O    -1.819000000     2.686000000    -4.151000000
H    -2.252000000     1.918000000    -4.522000000
H    -2.496000000     3.114000000    -3.627000000
O     1.638000000    -6.508000000     3.770000000
H     0.948000000    -6.561000000     4.432000000
H     1.850000000    -5.576000000     3.719000000
O     3.827000000    -3.729000000     0.220000000
H     3.202000000    -3.160000000     0.670000000
H     4.683000000    -3.349000000     0.419000000
O     2.816000000    -1.718000000     1.833000000
H     2.027000000    -1.176000000     1.830000000
H     3.534000000    -1.095000000     1.946000000
O    -3.085000000     0.218000000     3.957000000
H    -3.465000000     0.733000000     3.246000000
H    -2.606000000    -0.484000000     3.515000000
O    -1.084000000    -5.579000000     2.214000000
H    -0.681000000    -5.770000000     3.061000000
H    -0.723000000    -4.728000000     1.963000000
O    -0.545000000    -5.418000000     5.045000000
H    -0.389000000    -4.500000000     5.270000000
H    -1.394000000    -5.620000000     5.437000000
O    -2.253000000    -5.591000000    -0.302000000
H    -2.036000000    -4.823000000    -0.830000000
H    -1.785000000    -5.455000000     0.523000000
O     2.260000000    -6.223000000    -0.782000000
H     2.619000000    -5.427000000    -0.391000000
H     2.970000000    -6.565000000    -1.324000000
O     4.013000000     2.337000000    -5.843000000
H     4.023000000     2.864000000    -6.642000000
H     3.370000000     2.767000000    -5.280000000
O     3.992000000     4.407000000    -1.971000000
H     3.927000000     4.020000000    -1.098000000
H     3.926000000     5.350000000    -1.821000000
O     1.793000000    -3.760000000     3.477000000
H     0.999000000    -3.832000000     2.947000000
H     2.128000000    -2.883000000     3.289000000
O     3.801000000     2.904000000     0.285000000
H     2.999000000     3.116000000     0.763000000
H     3.676000000     1.999000000    -0.002000000
O     3.538000000     0.521000000    -3.736000000
H     3.889000000    -0.315000000    -4.042000000
H     4.274000000     1.129000000    -3.804000000
