144
-2840.57478
O    -0.943000000     5.666000000     2.588000000
H    -1.551000000     5.460000000     3.298000000
H    -1.506000000     5.870000000     1.842000000
O    -2.552000000    -1.021000000     7.821000000
H    -2.608000000    -0.407000000     7.089000000
H    -2.551000000    -1.885000000     7.409000000
O     0.212000000    -3.304000000     1.052000000
H    -0.319000000    -3.756000000     0.396000000
H    -0.009000000    -2.379000000     0.942000000
O     3.151000000     3.038000000    -3.839000000
H     3.413000000     3.936000000    -3.637000000
H     3.567000000     2.508000000    -3.159000000
O     4.831000000    -3.628000000    -1.708000000
H     4.756000000    -2.952000000    -1.035000000
H     3.936000000    -3.947000000    -1.826000000
O     3.264000000     2.000000000     2.552000000
H     2.544000000     2.619000000     2.436000000
H     2.834000000     1.154000000     2.680000000
O    -7.207000000    -1.156000000     2.307000000
H    -7.958000000    -0.798000000     1.835000000
H    -6.446000000    -0.862000000     1.806000000
O    -0.907000000    -4.713000000     3.144000000
H    -0.488000000    -4.249000000     2.419000000
H    -1.334000000    -4.025000000     3.654000000
O     5.599000000    -0.940000000    -3.163000000
H     5.897000000    -1.832000000    -2.988000000
H     4.927000000    -1.040000000    -3.837000000
O    -6.893000000    -1.390000000    -1.918000000
H    -5.989000000    -1.305000000    -1.617000000
H    -6.832000000    -1.911000000    -2.719000000
O     2.967000000     1.556000000    -6.426000000
H     2.368000000     2.046000000    -5.863000000
H     3.208000000     2.176000000    -7.115000000
O     7.717000000    -1.827000000     0.013000000
H     6.796000000    -1.633000000    -0.160000000
H     8.182000000    -1.029000000    -0.241000000
O     2.056000000    -4.501000000    -0.987000000
H     1.480000000    -4.975000000    -1.587000000
H     1.462000000    -3.985000000    -0.442000000
O    -1.108000000    -4.505000000    -1.117000000
H    -1.354000000    -4.069000000    -1.933000000
H    -0.835000000    -5.382000000    -1.387000000
O    -0.714000000     3.018000000    -1.386000000
H    -1.572000000     2.987000000    -0.964000000
H    -0.161000000     2.453000000    -0.847000000
O    -3.368000000     3.576000000     6.439000000
H    -3.167000000     2.641000000     6.445000000
H    -3.096000000     3.885000000     7.303000000
O    -2.021000000    -2.743000000    -3.921000000
H    -2.229000000    -2.596000000    -4.844000000
H    -1.394000000    -2.054000000    -3.704000000
O    -2.634000000    -2.366000000     4.031000000
H    -3.417000000    -2.913000000     3.968000000
H    -2.763000000    -1.686000000     3.369000000
O     3.385000000    -1.871000000     1.950000000
H     2.707000000    -1.352000000     2.383000000
H     3.128000000    -2.780000000     2.107000000
O    -4.739000000    -4.558000000    -0.065000000
H    -4.380000000    -5.397000000    -0.351000000
H    -4.477000000    -3.940000000    -0.748000000
O     5.018000000    -3.764000000    -5.485000000
H     4.424000000    -3.697000000    -4.737000000
H     4.480000000    -4.134000000    -6.185000000
O    -2.261000000    -3.390000000     6.505000000
H    -2.770000000    -4.199000000     6.552000000
H    -2.259000000    -3.161000000     5.576000000
O     3.603000000    -0.940000000    -4.980000000
H     3.386000000    -0.066000000    -5.305000000
H     2.755000000    -1.342000000    -4.791000000
O    -4.816000000    -3.873000000     2.533000000
H    -5.723000000    -3.772000000     2.822000000
H    -4.873000000    -3.924000000     1.579000000
O    -0.846000000     5.220000000     5.985000000
H    -0.805000000     4.383000000     6.449000000
H    -0.990000000     4.979000000     5.070000000
O    -1.871000000     2.594000000    -6.243000000
H    -1.881000000     3.540000000    -6.095000000
H    -1.227000000     2.260000000    -5.618000000
O    -3.893000000     0.196000000    -3.885000000
H    -2.949000000     0.212000000    -3.724000000
H    -3.975000000    -0.079000000    -4.799000000
O    -3.232000000     0.755000000     5.462000000
H    -2.603000000     0.697000000     4.743000000
H    -4.036000000     0.375000000     5.107000000
O     0.305000000     1.471000000     4.828000000
H    -0.101000000     1.627000000     5.680000000
H    -0.429000000     1.447000000     4.214000000
O     4.320000000     1.398000000    -2.133000000
H     4.892000000     0.744000000    -2.535000000
H     4.497000000     1.328000000    -1.195000000
O     2.118000000    -0.239000000     3.626000000
H     1.488000000     0.458000000     3.811000000
H     2.160000000    -0.744000000     4.438000000
O    -4.440000000    -3.314000000    -2.426000000
H    -3.646000000    -3.160000000    -2.938000000
H    -5.150000000    -2.993000000    -2.982000000
O    -4.872000000     4.026000000     1.186000000
H    -5.069000000     3.614000000     2.027000000
H    -5.728000000     4.169000000     0.783000000
O     2.270000000     3.953000000     5.304000000
H     2.753000000     3.130000000     5.384000000
H     2.079000000     4.208000000     6.207000000
O    -4.648000000     1.262000000    -1.606000000
H    -5.379000000     1.811000000    -1.891000000
H    -4.400000000     0.769000000    -2.388000000
O    -1.033000000    -0.325000000    -4.544000000
H    -0.476000000    -0.911000000    -5.056000000
H    -0.560000000     0.506000000    -4.531000000
O    -5.059000000     0.119000000     0.985000000
H    -4.270000000    -0.038000000     1.504000000
H    -4.738000000     0.529000000     0.181000000
O    -2.895000000     2.645000000     0.090000000
H    -3.340000000     2.159000000    -0.604000000
H    -3.604000000     3.012000000     0.618000000
O     2.059000000    -4.257000000    -4.360000000
H     2.362000000    -4.070000000    -3.472000000
H     2.321000000    -5.164000000    -4.516000000
O     6.168000000     3.841000000    -0.981000000
H     5.895000000     4.558000000    -0.409000000
H     5.352000000     3.507000000    -1.353000000
O    -3.135000000     3.794000000     3.828000000
H    -3.304000000     3.606000000     4.752000000
H    -2.524000000     3.111000000     3.553000000
O     0.817000000    -2.066000000    -5.546000000
H     0.623000000    -2.095000000    -6.482000000
H     1.062000000    -2.964000000    -5.324000000
O     5.311000000     1.251000000     0.628000000
H     6.155000000     1.683000000     0.761000000
H     4.785000000     1.515000000     1.383000000
O     4.846000000    -1.476000000    -0.181000000
H     5.178000000    -0.579000000    -0.213000000
H     4.354000000    -1.521000000     0.639000000
O     2.042000000     4.775000000     2.734000000
H     2.184000000     4.634000000     3.670000000
H     1.152000000     5.123000000     2.676000000
O     0.338000000     1.894000000    -3.940000000
H     1.279000000     2.027000000    -3.828000000
H    -0.056000000     2.312000000    -3.173000000
O    -5.428000000    -0.197000000     4.064000000
H    -6.197000000    -0.514000000     3.590000000
H    -4.759000000    -0.085000000     3.388000000
O    -6.849000000     1.989000000     2.692000000
H    -7.577000000     1.423000000     2.438000000
H    -6.242000000     1.409000000     3.151000000
