144
-2795.38864
O     4.079000000    -2.167000000    -5.275000000
H     3.281000000    -1.640000000    -5.304000000
H     3.805000000    -3.033000000    -5.577000000
O     7.647000000    -1.281000000     0.568000000
H     6.772000000    -0.901000000     0.485000000
H     7.576000000    -2.139000000     0.151000000
O     0.216000000    -5.449000000     2.898000000
H     0.872000000    -5.138000000     3.521000000
H     0.707000000    -6.004000000     2.291000000
O    -6.913000000     1.761000000     2.972000000
H    -7.096000000     0.874000000     3.282000000
H    -7.122000000     1.736000000     2.039000000
O     3.671000000    -4.547000000     0.004000000
H     3.550000000    -4.091000000     0.837000000
H     3.613000000    -5.475000000     0.229000000
O    -5.226000000     1.401000000    -0.732000000
H    -4.653000000     1.702000000    -0.027000000
H    -6.097000000     1.367000000    -0.335000000
O     0.154000000    -1.517000000     5.148000000
H    -0.672000000    -1.544000000     4.665000000
H     0.027000000    -0.829000000     5.802000000
O     1.746000000    -5.631000000    -1.731000000
H     1.982000000    -6.557000000    -1.780000000
H     2.508000000    -5.210000000    -1.333000000
O    -7.756000000     1.043000000     0.440000000
H    -8.257000000     0.769000000    -0.327000000
H    -8.074000000     1.925000000     0.632000000
O     4.743000000     3.481000000    -2.305000000
H     3.944000000     3.303000000    -2.801000000
H     4.434000000     3.857000000    -1.481000000
O     5.571000000    -4.396000000    -1.922000000
H     4.975000000    -4.457000000    -1.176000000
H     5.643000000    -3.458000000    -2.096000000
O    -1.317000000     5.968000000     1.247000000
H    -1.943000000     6.254000000     1.912000000
H    -1.673000000     5.141000000     0.923000000
O    -2.057000000    -2.204000000    -1.335000000
H    -1.518000000    -1.506000000    -0.962000000
H    -1.506000000    -2.595000000    -2.013000000
O    -1.043000000     1.815000000    -4.487000000
H    -1.814000000     1.575000000    -3.973000000
H    -0.315000000     1.376000000    -4.048000000
O    -0.194000000    -3.000000000    -2.894000000
H    -0.236000000    -2.626000000    -3.774000000
H     0.515000000    -3.641000000    -2.940000000
O    -6.382000000     0.935000000    -3.378000000
H    -7.099000000     0.863000000    -2.747000000
H    -5.610000000     1.118000000    -2.843000000
O    -1.395000000    -5.855000000    -1.611000000
H    -0.567000000    -5.414000000    -1.424000000
H    -2.022000000    -5.453000000    -1.010000000
O     1.228000000    -6.263000000    -4.466000000
H     0.302000000    -6.378000000    -4.254000000
H     1.676000000    -6.326000000    -3.622000000
O     3.628000000     3.720000000     0.528000000
H     2.886000000     3.750000000    -0.075000000
H     3.530000000     2.886000000     0.987000000
O    -2.901000000     4.716000000    -3.818000000
H    -3.158000000     5.609000000    -3.588000000
H    -3.469000000     4.486000000    -4.553000000
O     2.633000000    -2.302000000     4.406000000
H     1.708000000    -2.061000000     4.371000000
H     2.631000000    -3.259000000     4.426000000
O     2.070000000     1.270000000     2.737000000
H     1.369000000     1.304000000     2.086000000
H     2.340000000     2.182000000     2.846000000
O     4.702000000     0.565000000    -1.886000000
H     4.685000000     0.604000000    -0.930000000
H     4.626000000     1.477000000    -2.165000000
O    -2.379000000    -5.100000000     1.317000000
H    -1.524000000    -5.489000000     1.502000000
H    -2.590000000    -4.599000000     2.105000000
O    -4.341000000    -0.389000000     2.575000000
H    -5.187000000    -0.596000000     2.179000000
H    -4.017000000     0.359000000     2.073000000
O     2.665000000     2.315000000    -3.859000000
H     2.015000000     2.665000000    -4.468000000
H     2.836000000     1.428000000    -4.174000000
O    -4.675000000     2.137000000     5.967000000
H    -4.501000000     2.287000000     5.038000000
H    -5.626000000     2.204000000     6.047000000
O    -2.998000000    -1.389000000     7.264000000
H    -2.533000000    -1.414000000     6.427000000
H    -2.831000000    -0.510000000     7.604000000
O    -4.391000000     6.605000000    -1.593000000
H    -5.337000000     6.670000000    -1.727000000
H    -4.297000000     6.271000000    -0.701000000
O    -5.669000000    -1.285000000     4.876000000
H    -4.824000000    -1.164000000     5.309000000
H    -5.541000000    -0.927000000     3.997000000
O     2.016000000    -7.084000000     1.325000000
H     2.031000000    -7.484000000     2.194000000
H     1.225000000    -7.433000000     0.914000000
O     4.368000000    -2.865000000     2.177000000
H     5.300000000    -2.819000000     2.391000000
H     3.925000000    -2.833000000     3.025000000
O    -4.682000000     3.402000000     2.541000000
H    -4.132000000     2.726000000     2.144000000
H    -5.554000000     3.008000000     2.579000000
O    -4.311000000    -2.750000000    -0.232000000
H    -4.545000000    -2.080000000     0.410000000
H    -3.395000000    -2.568000000    -0.444000000
O    -6.629000000    -1.514000000     1.964000000
H    -6.961000000    -2.357000000     2.274000000
H    -7.127000000    -1.340000000     1.165000000
O    -3.419000000     1.901000000    -2.975000000
H    -3.374000000     2.782000000    -3.347000000
H    -3.428000000     2.040000000    -2.028000000
O     1.669000000     3.651000000    -1.227000000
H     1.881000000     3.189000000    -2.038000000
H     0.753000000     3.909000000    -1.330000000
O     1.879000000     6.132000000    -4.372000000
H     1.609000000     6.623000000    -3.596000000
H     1.205000000     5.461000000    -4.476000000
O    -4.107000000     5.169000000     0.694000000
H    -3.666000000     4.641000000     0.028000000
H    -4.438000000     4.531000000     1.325000000
O    -2.405000000    -0.928000000     4.313000000
H    -3.115000000    -1.043000000     3.681000000
H    -1.978000000    -0.114000000     4.049000000
O     0.319000000    -2.185000000    -5.684000000
H    -0.318000000    -1.675000000    -6.184000000
H     0.490000000    -2.954000000    -6.228000000
O    -3.823000000    -1.637000000    -3.349000000
H    -3.944000000    -0.693000000    -3.245000000
H    -3.392000000    -1.914000000    -2.540000000
O    -0.933000000     4.531000000    -1.640000000
H    -1.508000000     4.812000000    -2.352000000
H    -1.495000000     4.001000000    -1.074000000
O     1.761000000    -0.130000000    -4.999000000
H     1.836000000     0.264000000    -5.868000000
H     1.297000000    -0.954000000    -5.149000000
O     5.059000000    -0.077000000     1.104000000
H     4.538000000    -0.855000000     1.301000000
H     5.041000000     0.435000000     1.913000000
O     5.396000000    -1.909000000    -2.842000000
H     5.080000000    -1.052000000    -2.556000000
H     4.867000000    -2.113000000    -3.614000000
O    -0.165000000     4.585000000    -4.434000000
H    -0.384000000     3.672000000    -4.623000000
H    -1.002000000     5.047000000    -4.481000000
O     1.550000000     6.151000000     1.425000000
H     1.818000000     5.644000000     0.659000000
H     0.630000000     6.359000000     1.265000000
