144
-2806.70668
O    -2.789000000     0.761000000     3.404000000
H    -3.428000000     0.055000000     3.301000000
H    -1.940000000     0.330000000     3.310000000
O     1.068000000     4.712000000     1.910000000
H     0.205000000     4.481000000     1.567000000
H     1.355000000     5.443000000     1.362000000
O     2.433000000    -5.898000000     3.899000000
H     2.689000000    -5.008000000     4.140000000
H     2.707000000    -5.988000000     2.986000000
O    -0.295000000    -5.569000000     4.663000000
H    -0.472000000    -4.865000000     4.039000000
H     0.636000000    -5.760000000     4.551000000
O     4.538000000     2.736000000    -2.075000000
H     4.994000000     2.125000000    -2.653000000
H     3.767000000     2.254000000    -1.776000000
O     2.280000000     2.237000000    -0.929000000
H     1.906000000     2.396000000    -1.795000000
H     1.765000000     1.511000000    -0.575000000
O    -1.950000000    -4.748000000    -1.454000000
H    -2.270000000    -4.322000000    -2.249000000
H    -2.688000000    -4.706000000    -0.846000000
O     2.341000000    -4.074000000    -3.253000000
H     2.336000000    -3.287000000    -2.708000000
H     1.679000000    -4.642000000    -2.860000000
O    -0.917000000    -2.733000000     3.308000000
H    -0.058000000    -2.452000000     3.623000000
H    -1.445000000    -2.824000000     4.101000000
O    -2.418000000     3.382000000     3.971000000
H    -2.663000000     3.509000000     4.888000000
H    -2.765000000     2.518000000     3.748000000
O     2.357000000     2.838000000     6.173000000
H     2.251000000     2.471000000     5.295000000
H     2.646000000     3.738000000     6.023000000
O    -5.082000000     3.619000000    -1.796000000
H    -5.784000000     3.204000000    -1.294000000
H    -4.286000000     3.170000000    -1.512000000
O     3.804000000    -3.733000000     1.633000000
H     3.540000000    -2.993000000     2.179000000
H     3.739000000    -3.404000000     0.736000000
O    -2.057000000    -5.859000000     1.516000000
H    -1.966000000    -5.134000000     0.898000000
H    -2.801000000    -6.363000000     1.185000000
O    -5.570000000     4.036000000     1.785000000
H    -4.986000000     3.388000000     1.391000000
H    -6.413000000     3.890000000     1.356000000
O     4.968000000     0.339000000     3.316000000
H     5.920000000     0.437000000     3.361000000
H     4.704000000     0.902000000     2.588000000
O     5.895000000    -0.183000000    -0.242000000
H     5.744000000     0.498000000     0.412000000
H     5.929000000     0.288000000    -1.075000000
O    -2.895000000     5.233000000    -4.580000000
H    -2.587000000     6.101000000    -4.842000000
H    -2.646000000     5.158000000    -3.659000000
O     2.387000000     2.807000000     3.370000000
H     3.191000000     2.381000000     3.072000000
H     2.191000000     3.451000000     2.689000000
O     1.440000000    -2.646000000     4.482000000
H     1.466000000    -3.098000000     5.325000000
H     1.999000000    -1.879000000     4.605000000
O    -2.752000000    -3.043000000     0.574000000
H    -2.819000000    -2.252000000     0.038000000
H    -1.973000000    -2.901000000     1.112000000
O    -5.133000000    -0.484000000     0.179000000
H    -4.929000000     0.424000000     0.402000000
H    -5.697000000    -0.784000000     0.892000000
O    -3.234000000    -3.568000000    -3.680000000
H    -4.146000000    -3.784000000    -3.878000000
H    -3.288000000    -2.805000000    -3.104000000
O     2.692000000    -0.161000000     4.923000000
H     3.131000000    -0.313000000     5.760000000
H     3.354000000     0.264000000     4.378000000
O    -3.942000000     1.916000000     0.946000000
H    -3.226000000     2.188000000     0.372000000
H    -3.506000000     1.575000000     1.727000000
O     0.659000000    -5.937000000    -1.691000000
H    -0.166000000    -5.451000000    -1.688000000
H     0.395000000    -6.857000000    -1.715000000
O     2.740000000    -1.298000000    -4.412000000
H     3.235000000    -0.545000000    -4.735000000
H     3.383000000    -1.817000000    -3.927000000
O     5.696000000    -5.389000000     1.176000000
H     4.983000000    -4.820000000     1.467000000
H     6.315000000    -5.390000000     1.906000000
O    -3.692000000    -1.461000000    -2.080000000
H    -3.245000000    -0.791000000    -2.597000000
H    -4.154000000    -0.970000000    -1.400000000
O    -0.279000000     5.405000000     4.171000000
H     0.449000000     5.017000000     3.686000000
H    -0.984000000     4.761000000     4.100000000
O    -2.047000000    -2.634000000    -6.184000000
H    -2.408000000    -3.348000000    -5.658000000
H    -2.590000000    -1.877000000    -5.965000000
O     4.251000000     1.770000000     1.173000000
H     3.765000000     1.869000000     0.354000000
H     4.735000000     2.591000000     1.265000000
O    -5.768000000     1.786000000    -6.898000000
H    -5.634000000     1.793000000    -5.950000000
H    -6.687000000     2.030000000    -7.012000000
O    -4.585000000     2.044000000    -3.998000000
H    -4.026000000     1.437000000    -3.514000000
H    -4.661000000     2.808000000    -3.426000000
O     0.099000000     0.762000000     4.798000000
H     0.902000000     0.268000000     4.961000000
H     0.398000000     1.584000000     4.409000000
O    -3.684000000     6.244000000    -0.302000000
H    -4.596000000     6.222000000    -0.591000000
H    -3.250000000     6.830000000    -0.922000000
O    -1.924000000    -0.125000000     6.312000000
H    -1.246000000     0.094000000     5.672000000
H    -2.081000000    -1.061000000     6.184000000
O    -3.298000000    -0.361000000    -5.579000000
H    -3.826000000     0.223000000    -6.123000000
H    -3.121000000     0.146000000    -4.786000000
O    -1.643000000     4.481000000     0.876000000
H    -2.378000000     4.476000000     0.263000000
H    -2.051000000     4.432000000     1.740000000
O    -1.658000000     2.603000000    -4.807000000
H    -1.965000000     2.195000000    -3.997000000
H    -1.943000000     3.515000000    -4.738000000
O     4.145000000    -2.579000000    -0.793000000
H     4.733000000    -1.922000000    -0.420000000
H     4.522000000    -2.779000000    -1.650000000
O    -0.752000000     7.275000000     0.600000000
H    -1.367000000     6.542000000     0.572000000
H    -0.933000000     7.771000000    -0.198000000
O    -0.994000000     1.045000000    -6.973000000
H    -1.345000000     1.482000000    -6.197000000
H    -0.902000000     0.129000000    -6.710000000
O     2.771000000    -6.777000000    -0.299000000
H     3.596000000    -6.299000000    -0.386000000
H     2.152000000    -6.285000000    -0.837000000
O    -5.607000000     6.311000000    -2.235000000
H    -5.455000000     5.368000000    -2.298000000
H    -5.420000000     6.644000000    -3.113000000
O     0.143000000    -0.780000000    -5.291000000
H     0.954000000    -0.951000000    -4.812000000
H    -0.493000000    -1.386000000    -4.910000000
O     0.990000000     2.946000000    -3.483000000
H     0.091000000     2.967000000    -3.811000000
H     1.531000000     3.115000000    -4.255000000
O    -1.522000000     4.839000000    -2.227000000
H    -1.872000000     4.065000000    -1.787000000
H    -0.951000000     5.247000000    -1.575000000
