144
-2795.64388
O    -1.205000000     2.780000000     2.743000000
H    -0.531000000     2.628000000     2.081000000
H    -1.961000000     2.279000000     2.435000000
O     2.422000000    -0.899000000     5.229000000
H     3.106000000    -1.000000000     5.891000000
H     1.927000000    -0.129000000     5.512000000
O    -2.774000000    -3.079000000     1.744000000
H    -2.889000000    -2.311000000     2.303000000
H    -2.769000000    -2.728000000     0.853000000
O     3.639000000     5.183000000     2.271000000
H     4.076000000     4.407000000     1.922000000
H     4.354000000     5.747000000     2.566000000
O    -7.482000000     0.707000000    -2.857000000
H    -7.999000000     0.552000000    -2.067000000
H    -6.870000000    -0.028000000    -2.891000000
O     3.593000000    -5.117000000     3.159000000
H     3.488000000    -4.302000000     3.649000000
H     3.036000000    -5.007000000     2.388000000
O    -2.658000000    -6.100000000     2.067000000
H    -3.364000000    -6.412000000     2.632000000
H    -2.782000000    -5.151000000     2.030000000
O     0.888000000     5.868000000    -1.491000000
H     0.470000000     6.026000000    -2.338000000
H     1.713000000     5.434000000    -1.708000000
O    -0.626000000     2.392000000    -4.758000000
H    -0.116000000     2.989000000    -4.210000000
H    -1.352000000     2.926000000    -5.081000000
O     2.367000000    -4.090000000     0.783000000
H     1.444000000    -4.158000000     1.028000000
H     2.705000000    -3.373000000     1.320000000
O    -6.065000000    -5.763000000    -1.073000000
H    -5.701000000    -5.412000000    -1.886000000
H    -5.681000000    -5.220000000    -0.385000000
O     6.806000000    -1.357000000     0.916000000
H     7.351000000    -2.143000000     0.879000000
H     7.293000000    -0.705000000     0.412000000
O     0.999000000     0.023000000    -3.965000000
H     0.627000000     0.905000000    -3.965000000
H     0.251000000    -0.553000000    -4.125000000
O    -0.366000000    -1.913000000    -6.241000000
H    -1.050000000    -2.216000000    -6.839000000
H    -0.831000000    -1.384000000    -5.593000000
O     3.555000000    -0.536000000    -3.787000000
H     3.637000000    -1.488000000    -3.844000000
H     2.611000000    -0.376000000    -3.793000000
O    -5.170000000    -4.179000000     0.910000000
H    -4.425000000    -3.706000000     0.540000000
H    -5.149000000    -3.969000000     1.843000000
O     6.092000000    -1.437000000     3.373000000
H     6.667000000    -0.843000000     3.855000000
H     6.336000000    -1.315000000     2.455000000
O    -7.853000000    -2.280000000     0.156000000
H    -6.929000000    -2.034000000     0.196000000
H    -8.207000000    -1.761000000    -0.567000000
O     3.909000000     2.055000000     6.643000000
H     4.028000000     2.304000000     5.727000000
H     4.391000000     1.232000000     6.732000000
O    -5.391000000     0.174000000     2.628000000
H    -4.607000000     0.634000000     2.328000000
H    -5.393000000    -0.645000000     2.133000000
O    -2.110000000    -4.858000000    -0.913000000
H    -2.492000000    -4.011000000    -1.146000000
H    -2.846000000    -5.366000000    -0.572000000
O     7.154000000     1.611000000     2.456000000
H     7.404000000     1.096000000     3.223000000
H     7.215000000     2.521000000     2.747000000
O     4.518000000     1.804000000     3.763000000
H     5.433000000     1.785000000     3.484000000
H     4.081000000     1.172000000     3.192000000
O     4.900000000    -1.536000000    -1.148000000
H     4.611000000    -0.675000000    -1.449000000
H     5.401000000    -1.357000000    -0.353000000
O     3.279000000     5.150000000    -2.261000000
H     3.972000000     4.826000000    -2.837000000
H     3.630000000     5.964000000    -1.900000000
O     5.234000000     3.238000000     0.777000000
H     5.748000000     2.580000000     1.246000000
H     5.873000000     3.903000000     0.521000000
O    -2.907000000     5.156000000    -3.807000000
H    -3.029000000     6.077000000    -3.580000000
H    -3.122000000     4.681000000    -3.004000000
O    -5.365000000    -2.737000000     3.299000000
H    -5.938000000    -2.770000000     4.065000000
H    -4.618000000    -2.209000000     3.581000000
O    -1.923000000    -0.434000000    -4.595000000
H    -2.270000000    -0.357000000    -3.706000000
H    -2.617000000    -0.084000000    -5.154000000
O     0.415000000    -5.717000000    -0.992000000
H    -0.516000000    -5.541000000    -0.860000000
H     0.751000000    -4.925000000    -1.413000000
O     3.369000000    -2.442000000     3.054000000
H     4.182000000    -2.673000000     3.505000000
H     2.949000000    -1.803000000     3.630000000
O    -5.275000000    -0.696000000    -3.430000000
H    -4.504000000    -0.991000000    -2.945000000
H    -5.630000000    -1.493000000    -3.823000000
O    -3.763000000     2.300000000     1.567000000
H    -3.831000000     3.254000000     1.596000000
H    -4.254000000     2.049000000     0.784000000
O    -3.628000000    -3.320000000    -4.407000000
H    -3.137000000    -2.533000000    -4.171000000
H    -3.285000000    -3.568000000    -5.266000000
O     1.232000000     1.345000000     6.415000000
H     2.093000000     1.760000000     6.352000000
H     0.828000000     1.748000000     7.183000000
O    -4.268000000     0.856000000    -5.567000000
H    -4.696000000     0.296000000    -6.215000000
H    -4.441000000     0.427000000    -4.729000000
O     0.068000000    -2.129000000     3.739000000
H     0.010000000    -3.000000000     3.347000000
H     0.999000000    -2.012000000     3.927000000
O     4.113000000    -4.081000000    -1.377000000
H     3.535000000    -4.315000000    -0.650000000
H     4.300000000    -3.152000000    -1.245000000
O    -1.991000000     5.674000000     1.013000000
H    -1.109000000     5.334000000     1.169000000
H    -1.851000000     6.574000000     0.718000000
O     0.846000000     4.970000000     1.171000000
H     1.709000000     4.814000000     1.555000000
H     0.903000000     4.595000000     0.293000000
O    -5.401000000    -0.934000000    -0.133000000
H    -4.611000000    -1.437000000    -0.330000000
H    -5.264000000    -0.091000000    -0.566000000
O    -5.414000000    -5.254000000    -3.666000000
H    -5.299000000    -6.011000000    -4.240000000
H    -4.582000000    -4.783000000    -3.722000000
O     0.189000000    -4.758000000     3.005000000
H     0.929000000    -5.353000000     2.886000000
H    -0.584000000    -5.311000000     2.888000000
O    -2.557000000    -1.341000000     3.729000000
H    -1.631000000    -1.495000000     3.542000000
H    -2.560000000    -0.593000000     4.326000000
O    -4.566000000     1.802000000    -1.142000000
H    -5.189000000     2.109000000    -1.800000000
H    -3.826000000     2.406000000    -1.212000000
O     1.583000000     4.739000000     5.221000000
H     1.419000000     3.973000000     5.772000000
H     1.995000000     4.383000000     4.434000000
O    -3.223000000     4.228000000    -1.152000000
H    -4.009000000     4.768000000    -1.232000000
H    -2.736000000     4.619000000    -0.427000000
O    -1.654000000     4.212000000     4.788000000
H    -1.470000000     3.596000000     4.079000000
H    -0.905000000     4.809000000     4.787000000
