144
-2790.76439
O     4.344000000     5.859000000     3.089000000
H     3.767000000     6.100000000     3.814000000
H     3.752000000     5.719000000     2.350000000
O    -2.641000000     6.094000000    -1.951000000
H    -2.616000000     6.994000000    -1.625000000
H    -1.721000000     5.836000000    -2.011000000
O    -2.465000000    -1.055000000     1.548000000
H    -1.671000000    -1.073000000     1.013000000
H    -3.160000000    -0.813000000     0.936000000
O     5.273000000    -0.250000000     6.032000000
H     4.384000000    -0.041000000     5.744000000
H     5.749000000     0.577000000     5.960000000
O    -2.648000000    -2.934000000    -5.692000000
H    -3.348000000    -2.581000000    -5.143000000
H    -1.908000000    -3.045000000    -5.095000000
O     0.546000000    -3.594000000     4.282000000
H    -0.284000000    -4.059000000     4.380000000
H     0.306000000    -2.756000000     3.887000000
O    -4.463000000     1.830000000     1.020000000
H    -3.568000000     1.941000000     1.339000000
H    -4.384000000     1.864000000     0.067000000
O    -3.910000000    -0.368000000    -6.660000000
H    -3.484000000    -1.222000000    -6.583000000
H    -3.591000000     0.127000000    -5.905000000
O    -2.294000000     2.657000000     2.571000000
H    -1.813000000     3.424000000     2.259000000
H    -1.771000000     2.328000000     3.302000000
O     2.328000000    -2.354000000    -3.834000000
H     2.914000000    -2.600000000    -4.550000000
H     1.928000000    -1.534000000    -4.122000000
O    -1.617000000    -5.014000000    -1.813000000
H    -1.093000000    -5.069000000    -1.013000000
H    -1.757000000    -4.076000000    -1.943000000
O     1.405000000    -5.304000000     2.324000000
H     1.225000000    -4.436000000     2.686000000
H     1.099000000    -5.912000000     2.996000000
O     6.813000000    -0.177000000    -0.126000000
H     6.222000000     0.406000000    -0.603000000
H     7.525000000     0.392000000     0.167000000
O     0.400000000    -5.422000000    -5.363000000
H     0.655000000    -5.863000000    -4.553000000
H    -0.146000000    -4.690000000    -5.075000000
O    -0.012000000     5.118000000    -2.207000000
H     0.530000000     5.872000000    -1.978000000
H     0.615000000     4.422000000    -2.403000000
O    -3.034000000    -6.685000000    -3.146000000
H    -2.474000000    -5.988000000    -2.805000000
H    -2.742000000    -7.473000000    -2.688000000
O    -6.067000000     1.493000000    -1.521000000
H    -5.251000000     1.974000000    -1.657000000
H    -5.847000000     0.586000000    -1.733000000
O    -4.226000000    -2.651000000    -0.838000000
H    -4.079000000    -3.385000000    -0.242000000
H    -3.483000000    -2.680000000    -1.441000000
O    -2.797000000     1.207000000    -4.643000000
H    -2.825000000     0.719000000    -3.820000000
H    -2.130000000     1.879000000    -4.501000000
O    -0.838000000    -4.851000000     1.003000000
H    -1.422000000    -5.074000000     1.728000000
H    -0.003000000    -5.257000000     1.235000000
O    -5.545000000    -4.707000000    -2.410000000
H    -5.863000000    -5.534000000    -2.047000000
H    -5.882000000    -4.038000000    -1.814000000
O     3.621000000    -4.546000000     0.913000000
H     3.489000000    -4.605000000    -0.034000000
H     2.813000000    -4.896000000     1.289000000
O    -4.009000000    -5.917000000     0.577000000
H    -3.630000000    -6.490000000     1.244000000
H    -3.541000000    -6.144000000    -0.227000000
O    -7.774000000    -0.923000000    -3.418000000
H    -8.345000000    -0.257000000    -3.800000000
H    -6.943000000    -0.822000000    -3.882000000
O    -3.144000000     6.364000000     1.957000000
H    -2.544000000     7.006000000     1.576000000
H    -3.177000000     5.656000000     1.314000000
O     2.051000000     2.882000000    -2.540000000
H     2.411000000     3.211000000    -1.716000000
H     2.044000000     1.930000000    -2.435000000
O     2.937000000    -4.392000000    -1.818000000
H     3.810000000    -4.542000000    -2.181000000
H     2.560000000    -3.711000000    -2.374000000
O     4.368000000    -2.392000000     2.630000000
H     3.807000000    -3.051000000     2.221000000
H     5.014000000    -2.899000000     3.121000000
O    -1.485000000     4.675000000     0.597000000
H    -1.905000000     4.276000000    -0.165000000
H    -0.637000000     4.977000000     0.272000000
O     2.869000000     3.593000000     4.395000000
H     1.920000000     3.496000000     4.485000000
H     3.168000000     3.836000000     5.271000000
O    -0.895000000     1.778000000     4.815000000
H    -1.797000000     1.716000000     5.129000000
H    -0.374000000     1.914000000     5.607000000
O    -3.817000000    -3.230000000     3.170000000
H    -4.734000000    -3.386000000     2.944000000
H    -3.565000000    -2.474000000     2.639000000
O    -0.225000000     2.241000000    -3.974000000
H     0.652000000     2.347000000    -3.606000000
H    -0.074000000     2.038000000    -4.898000000
O     2.892000000     3.774000000    -0.177000000
H     3.644000000     4.330000000     0.028000000
H     2.244000000     3.991000000     0.493000000
O     2.868000000     0.628000000     5.075000000
H     2.141000000     0.981000000     5.587000000
H     3.068000000     1.313000000     4.437000000
O     5.873000000    -0.143000000     2.623000000
H     5.127000000    -0.732000000     2.736000000
H     6.090000000    -0.207000000     1.693000000
O     4.849000000     1.462000000    -1.142000000
H     4.075000000     0.900000000    -1.112000000
H     4.588000000     2.253000000    -0.670000000
O    -4.683000000    -2.220000000    -3.745000000
H    -4.309000000    -1.508000000    -3.227000000
H    -4.543000000    -3.003000000    -3.213000000
O     0.037000000     4.021000000     3.754000000
H    -0.275000000     4.651000000     4.403000000
H    -0.359000000     3.190000000     4.017000000
O    -0.470000000    -0.911000000     3.888000000
H    -0.698000000    -0.029000000     4.183000000
H    -1.014000000    -1.052000000     3.113000000
O    -0.473000000    -3.280000000    -4.163000000
H    -1.020000000    -3.193000000    -3.382000000
H     0.384000000    -2.950000000    -3.892000000
O     1.333000000     2.248000000     6.623000000
H     0.615000000     2.184000000     7.253000000
H     1.892000000     2.944000000     6.968000000
O     0.938000000    -6.134000000    -0.832000000
H     1.022000000    -6.482000000    -1.720000000
H     1.647000000    -5.495000000    -0.757000000
O    -3.575000000     2.947000000    -1.926000000
H    -3.481000000     3.899000000    -1.905000000
H    -2.747000000     2.632000000    -2.289000000
O    -6.088000000    -1.086000000     0.743000000
H    -5.555000000    -1.676000000     0.209000000
H    -5.478000000    -0.406000000     1.030000000
O     1.442000000     5.423000000     1.657000000
H     1.172000000     6.276000000     1.996000000
H     0.904000000     4.793000000     2.137000000
O     2.336000000    -0.227000000    -1.963000000
H     1.604000000    -0.367000000    -1.362000000
H     2.777000000    -1.075000000    -2.005000000
O     2.178000000    -2.025000000     5.910000000
H     1.889000000    -2.545000000     5.160000000
H     2.286000000    -1.140000000     5.561000000
