144
-2818.90299
O     4.574000000    -1.500000000     3.633000000
H     4.702000000    -1.258000000     4.550000000
H     4.566000000    -0.666000000     3.164000000
O     4.019000000     3.346000000    -4.844000000
H     4.686000000     2.711000000    -4.585000000
H     4.025000000     3.999000000    -4.144000000
O     2.163000000    -1.254000000    -5.671000000
H     1.863000000    -1.351000000    -6.574000000
H     2.081000000    -0.317000000    -5.491000000
O     6.221000000     1.726000000    -4.974000000
H     7.121000000     1.853000000    -4.673000000
H     5.773000000     1.324000000    -4.230000000
O    -0.960000000     3.976000000     3.485000000
H    -0.596000000     3.130000000     3.743000000
H    -1.584000000     3.767000000     2.789000000
O     4.081000000    -1.833000000    -1.974000000
H     3.329000000    -2.009000000    -1.407000000
H     3.956000000    -2.413000000    -2.725000000
O     0.953000000    -5.842000000     2.059000000
H     1.496000000    -6.214000000     2.754000000
H     0.897000000    -6.536000000     1.402000000
O     2.988000000     3.289000000     4.512000000
H     2.134000000     2.857000000     4.524000000
H     2.787000000     4.215000000     4.373000000
O     5.395000000    -1.650000000     0.750000000
H     5.058000000    -1.907000000    -0.108000000
H     5.017000000    -2.287000000     1.356000000
O    -1.652000000    -5.371000000     1.943000000
H    -1.806000000    -4.458000000     1.701000000
H    -0.702000000    -5.435000000     2.043000000
O     0.895000000    -0.727000000     5.394000000
H     0.585000000    -1.120000000     6.210000000
H     0.772000000    -1.411000000     4.736000000
O    -0.351000000    -5.762000000     4.936000000
H    -0.079000000    -6.678000000     4.876000000
H    -1.087000000    -5.690000000     4.328000000
O    -0.707000000     3.690000000    -5.231000000
H    -0.112000000     3.516000000    -5.961000000
H    -0.340000000     4.462000000    -4.802000000
O    -4.443000000    -4.811000000    -0.484000000
H    -4.630000000    -4.779000000     0.454000000
H    -3.812000000    -4.106000000    -0.627000000
O     1.013000000    -3.340000000     4.213000000
H     1.955000000    -3.335000000     4.041000000
H     0.826000000    -4.237000000     4.489000000
O    -6.681000000    -2.093000000     0.675000000
H    -6.350000000    -2.516000000    -0.118000000
H    -6.292000000    -2.593000000     1.393000000
O     1.034000000     5.688000000    -3.431000000
H     1.212000000     6.471000000    -2.909000000
H     0.662000000     5.064000000    -2.807000000
O    -3.439000000    -7.270000000     1.720000000
H    -2.884000000    -6.519000000     1.930000000
H    -2.948000000    -8.028000000     2.037000000
O    -2.293000000    -1.390000000    -4.847000000
H    -2.292000000    -0.444000000    -4.992000000
H    -2.879000000    -1.735000000    -5.520000000
O    -2.976000000     1.515000000    -4.362000000
H    -2.267000000     2.095000000    -4.083000000
H    -3.776000000     1.997000000    -4.153000000
O    -2.869000000     3.840000000     1.506000000
H    -2.654000000     3.725000000     0.580000000
H    -3.425000000     3.090000000     1.717000000
O    -4.259000000     1.581000000     2.149000000
H    -3.998000000     0.747000000     2.540000000
H    -4.973000000     1.894000000     2.705000000
O    -6.808000000    -3.631000000    -1.970000000
H    -5.887000000    -3.856000000    -2.103000000
H    -6.920000000    -2.799000000    -2.430000000
O    -1.913000000    -2.934000000     4.131000000
H    -2.166000000    -3.102000000     3.223000000
H    -0.956000000    -2.926000000     4.115000000
O     2.688000000    -1.126000000     0.532000000
H     3.463000000    -0.850000000     1.022000000
H     2.005000000    -0.509000000     0.795000000
O     1.915000000     1.349000000    -5.168000000
H     2.741000000     1.759000000    -4.909000000
H     1.400000000     2.064000000    -5.540000000
O    -3.766000000    -2.532000000    -2.636000000
H    -3.236000000    -2.462000000    -1.842000000
H    -3.248000000    -2.088000000    -3.309000000
O     4.958000000     1.643000000     3.307000000
H     4.167000000     2.168000000     3.427000000
H     5.538000000     1.917000000     4.017000000
O     0.533000000     1.831000000     4.546000000
H     0.287000000     2.103000000     5.430000000
H     0.928000000     0.966000000     4.663000000
O    -4.525000000    -3.700000000     2.166000000
H    -3.688000000    -3.393000000     1.816000000
H    -4.454000000    -3.563000000     3.110000000
O    -2.352000000     2.199000000    -1.042000000
H    -3.114000000     2.301000000    -1.613000000
H    -2.495000000     1.363000000    -0.599000000
O    -0.339000000    -3.224000000    -5.359000000
H     0.501000000    -2.767000000    -5.401000000
H    -0.967000000    -2.548000000    -5.103000000
O    -5.914000000    -0.694000000    -2.427000000
H    -5.272000000    -1.389000000    -2.276000000
H    -6.000000000    -0.261000000    -1.578000000
O     6.443000000     0.755000000     1.342000000
H     5.888000000     0.932000000     2.102000000
H     6.098000000    -0.059000000     0.977000000
O     4.016000000     5.375000000    -2.749000000
H     3.815000000     6.258000000    -3.060000000
H     3.180000000     5.039000000    -2.426000000
O    -4.344000000    -3.925000000     5.492000000
H    -3.435000000    -3.629000000     5.434000000
H    -4.283000000    -4.880000000     5.519000000
O    -2.922000000    -0.579000000     3.227000000
H    -2.854000000    -1.283000000     2.582000000
H    -2.554000000    -0.952000000     4.028000000
O    -4.955000000    -5.950000000    -3.251000000
H    -4.841000000    -5.535000000    -2.396000000
H    -4.089000000    -5.907000000    -3.656000000
O    -2.975000000     4.682000000    -4.217000000
H    -3.806000000     4.490000000    -4.651000000
H    -2.408000000     3.946000000    -4.448000000
O    -0.074000000    -6.113000000    -3.647000000
H    -0.377000000    -5.974000000    -2.750000000
H    -0.486000000    -5.410000000    -4.151000000
O     3.785000000     4.880000000     0.236000000
H     4.051000000     4.035000000    -0.127000000
H     4.607000000     5.308000000     0.475000000
O    -1.611000000    -5.456000000    -1.226000000
H    -2.149000000    -5.745000000    -0.489000000
H    -1.652000000    -4.501000000    -1.192000000
O     1.432000000     5.926000000    -0.274000000
H     0.750000000     5.257000000    -0.335000000
H     2.243000000     5.430000000    -0.161000000
O     5.719000000     2.205000000    -0.882000000
H     5.926000000     1.695000000    -0.098000000
H     6.231000000     3.008000000    -0.786000000
O    -0.762000000     4.300000000    -1.063000000
H    -0.969000000     3.366000000    -1.060000000
H    -1.611000000     4.733000000    -1.156000000
O     2.389000000    -4.042000000     0.454000000
H     2.274000000    -3.110000000     0.266000000
H     1.788000000    -4.216000000     1.178000000
O     4.614000000     0.641000000    -2.934000000
H     5.033000000     0.881000000    -2.108000000
H     4.075000000    -0.121000000    -2.718000000
O     2.812000000     6.338000000     3.908000000
H     3.427000000     6.043000000     3.237000000
H     3.362000000     6.765000000     4.566000000
