144
-2822.38646
O    -1.831000000    -2.428000000     5.787000000
H    -1.605000000    -1.604000000     6.218000000
H    -2.178000000    -2.978000000     6.490000000
O    -3.334000000    -3.332000000    -3.838000000
H    -2.856000000    -2.537000000    -4.075000000
H    -4.121000000    -3.309000000    -4.382000000
O    -1.878000000     0.969000000    -6.470000000
H    -1.163000000     0.865000000    -5.842000000
H    -2.103000000     1.898000000    -6.424000000
O     1.467000000    -1.431000000    -4.960000000
H     1.358000000    -1.806000000    -4.086000000
H     0.705000000    -1.740000000    -5.450000000
O    -1.772000000     1.148000000     3.825000000
H    -2.429000000     0.452000000     3.796000000
H    -2.081000000     1.794000000     3.190000000
O    -3.371000000    -1.224000000     3.820000000
H    -3.600000000    -1.628000000     2.983000000
H    -2.808000000    -1.868000000     4.250000000
O    -3.607000000    -2.947000000     1.493000000
H    -3.598000000    -2.707000000     0.567000000
H    -2.751000000    -3.347000000     1.646000000
O     1.824000000     4.719000000     5.843000000
H     1.418000000     3.881000000     6.064000000
H     1.131000000     5.212000000     5.403000000
O    -5.073000000     0.290000000     1.620000000
H    -5.751000000     0.016000000     2.238000000
H    -5.389000000    -0.013000000     0.769000000
O     0.449000000    -7.157000000    -1.784000000
H     0.706000000    -6.368000000    -2.261000000
H    -0.507000000    -7.120000000    -1.758000000
O     2.048000000     5.069000000     1.660000000
H     1.396000000     5.769000000     1.660000000
H     2.660000000     5.311000000     0.965000000
O    -3.027000000     0.779000000    -0.838000000
H    -3.438000000    -0.058000000    -0.621000000
H    -2.158000000     0.729000000    -0.439000000
O     4.138000000     1.998000000    -3.799000000
H     3.714000000     1.485000000    -4.486000000
H     3.926000000     1.535000000    -2.988000000
O    -3.920000000     4.818000000     0.420000000
H    -3.707000000     4.115000000     1.034000000
H    -4.121000000     4.367000000    -0.400000000
O    -1.025000000    -2.161000000    -6.505000000
H    -1.192000000    -2.816000000    -7.183000000
H    -1.538000000    -2.458000000    -5.754000000
O     0.092000000    -5.758000000     2.831000000
H     1.002000000    -6.049000000     2.759000000
H    -0.413000000    -6.568000000     2.905000000
O     3.006000000    -4.824000000    -3.606000000
H     3.120000000    -4.069000000    -3.028000000
H     3.785000000    -5.359000000    -3.458000000
O     3.819000000     0.023000000     2.115000000
H     3.191000000    -0.506000000     2.608000000
H     3.468000000     0.912000000     2.156000000
O     2.568000000    -2.276000000    -7.491000000
H     3.523000000    -2.224000000    -7.518000000
H     2.348000000    -2.169000000    -6.565000000
O     3.739000000    -5.159000000    -6.357000000
H     4.006000000    -4.345000000    -6.784000000
H     3.605000000    -4.916000000    -5.441000000
O    -1.241000000    -4.249000000     1.249000000
H    -0.722000000    -4.802000000     1.833000000
H    -0.681000000    -4.116000000     0.484000000
O     1.721000000     1.803000000     4.679000000
H     1.474000000     2.181000000     3.835000000
H     2.597000000     2.150000000     4.850000000
O    -3.981000000    -2.262000000    -1.057000000
H    -4.796000000    -1.766000000    -1.127000000
H    -3.733000000    -2.444000000    -1.964000000
O     2.807000000     5.068000000    -2.075000000
H     2.791000000     4.210000000    -1.651000000
H     2.061000000     5.535000000    -1.698000000
O     3.319000000    -2.457000000    -2.142000000
H     3.397000000    -2.491000000    -1.189000000
H     2.451000000    -2.819000000    -2.324000000
O    -0.425000000     0.444000000     6.001000000
H    -0.859000000     0.994000000     5.349000000
H     0.472000000     0.356000000     5.680000000
O    -2.158000000    -1.120000000    -3.741000000
H    -2.277000000    -0.202000000    -3.496000000
H    -1.346000000    -1.381000000    -3.306000000
O     0.646000000     6.234000000    -1.028000000
H     0.194000000     6.343000000    -0.192000000
H     0.061000000     6.635000000    -1.671000000
O     2.873000000    -2.237000000     3.539000000
H     2.929000000    -1.902000000     4.435000000
H     2.048000000    -2.722000000     3.517000000
O    -1.801000000    -6.590000000    -4.500000000
H    -1.113000000    -5.946000000    -4.330000000
H    -2.494000000    -6.371000000    -3.876000000
O    -0.980000000     3.991000000    -2.880000000
H    -1.580000000     4.733000000    -2.951000000
H    -0.451000000     4.184000000    -2.105000000
O     3.215000000     0.430000000    -1.812000000
H     2.474000000     0.391000000    -1.208000000
H     3.364000000    -0.480000000    -2.068000000
O     2.367000000    -5.240000000    -0.127000000
H     1.553000000    -4.814000000    -0.395000000
H     2.194000000    -6.175000000    -0.234000000
O     3.115000000     2.802000000     2.297000000
H     2.761000000     3.658000000     2.056000000
H     3.846000000     3.001000000     2.882000000
O    -1.877000000    -4.928000000    -2.182000000
H    -1.246000000    -4.350000000    -1.753000000
H    -2.480000000    -4.334000000    -2.630000000
O     3.623000000     2.750000000    -0.659000000
H     3.783000000     1.912000000    -1.094000000
H     3.828000000     2.586000000     0.261000000
O    -3.269000000    -5.928000000    -0.014000000
H    -3.021000000    -5.856000000    -0.936000000
H    -2.601000000    -5.426000000     0.453000000
O    -3.699000000     2.523000000     2.021000000
H    -4.206000000     2.939000000     2.718000000
H    -4.198000000     1.737000000     1.798000000
O    -2.731000000     4.509000000     5.012000000
H    -2.315000000     3.756000000     4.592000000
H    -3.670000000     4.344000000     4.923000000
O     3.548000000     0.251000000    -5.730000000
H     2.711000000    -0.197000000    -5.610000000
H     4.190000000    -0.455000000    -5.796000000
O     3.891000000    -4.263000000     1.946000000
H     3.138000000    -4.497000000     1.403000000
H     3.710000000    -3.368000000     2.234000000
O     0.227000000    -3.184000000     4.178000000
H    -0.043000000    -4.008000000     3.772000000
H    -0.514000000    -2.934000000     4.729000000
O     0.269000000    -4.982000000    -4.197000000
H     0.116000000    -4.246000000    -3.604000000
H     1.220000000    -5.015000000    -4.298000000
O    -0.407000000     6.004000000     5.076000000
H    -0.782000000     6.885000000     5.092000000
H    -1.157000000     5.428000000     4.926000000
O    -2.712000000     6.792000000     2.915000000
H    -3.606000000     6.490000000     3.078000000
H    -2.772000000     7.747000000     2.952000000
O     4.545000000    -2.128000000     0.326000000
H     4.798000000    -2.979000000     0.686000000
H     4.738000000    -1.505000000     1.027000000
O    -2.240000000     1.591000000    -3.329000000
H    -1.723000000     2.393000000    -3.400000000
H    -2.541000000     1.580000000    -2.421000000
O    -0.149000000     7.011000000     1.447000000
H    -0.115000000     7.967000000     1.472000000
H    -0.822000000     6.778000000     2.088000000
