144
-2785.70918
O     1.836000000    -3.601000000    -6.063000000
H     2.557000000    -4.121000000    -5.709000000
H     1.048000000    -4.008000000    -5.703000000
O    -5.211000000     3.106000000     3.511000000
H    -4.415000000     2.773000000     3.925000000
H    -5.871000000     2.435000000     3.686000000
O    -3.101000000    -3.248000000    -2.599000000
H    -2.931000000    -2.339000000    -2.352000000
H    -2.237000000    -3.658000000    -2.613000000
O     3.677000000    -3.827000000    -3.804000000
H     2.784000000    -3.895000000    -3.465000000
H     3.892000000    -2.897000000    -3.728000000
O    -6.504000000    -1.371000000     4.548000000
H    -6.072000000    -2.181000000     4.279000000
H    -6.473000000    -1.389000000     5.505000000
O    -6.516000000     2.510000000     0.643000000
H    -6.331000000     1.768000000     0.067000000
H    -6.554000000     2.129000000     1.520000000
O    -2.022000000    -4.638000000     2.715000000
H    -1.661000000    -5.234000000     3.372000000
H    -1.844000000    -5.068000000     1.879000000
O    -0.104000000     2.760000000     4.732000000
H    -0.765000000     2.068000000     4.760000000
H     0.462000000     2.522000000     3.998000000
O     4.873000000    -0.585000000    -7.177000000
H     4.196000000    -0.513000000    -6.504000000
H     4.670000000     0.116000000    -7.796000000
O    -0.107000000     4.495000000    -4.566000000
H     0.463000000     4.369000000    -3.807000000
H     0.475000000     4.396000000    -5.320000000
O     2.616000000    -0.866000000    -5.211000000
H     2.159000000    -1.684000000    -5.015000000
H     2.713000000    -0.436000000    -4.361000000
O    -3.503000000     6.608000000     0.317000000
H    -3.479000000     5.664000000     0.476000000
H    -2.589000000     6.884000000     0.381000000
O     3.520000000     2.437000000    -3.111000000
H     3.228000000     1.559000000    -2.863000000
H     4.416000000     2.494000000    -2.778000000
O     6.019000000     1.770000000    -6.126000000
H     5.814000000     0.902000000    -5.779000000
H     6.976000000     1.801000000    -6.143000000
O    -1.703000000    -2.385000000     4.857000000
H    -1.429000000    -3.135000000     4.328000000
H    -1.290000000    -2.528000000     5.708000000
O    -3.192000000    -5.273000000    -0.246000000
H    -3.627000000    -6.111000000    -0.086000000
H    -3.662000000    -4.650000000     0.308000000
O    -3.089000000     3.645000000     0.051000000
H    -3.942000000     3.906000000     0.399000000
H    -2.515000000     3.624000000     0.816000000
O     7.167000000    -3.151000000    -3.927000000
H     6.797000000    -2.605000000    -3.233000000
H     7.998000000    -2.728000000    -4.147000000
O    -0.523000000     6.659000000     0.019000000
H     0.038000000     6.341000000     0.725000000
H    -0.419000000     6.013000000    -0.680000000
O     3.855000000     0.789000000     0.850000000
H     3.587000000     0.422000000     0.007000000
H     4.450000000     0.135000000     1.217000000
O     6.218000000    -1.857000000    -1.501000000
H     5.557000000    -2.452000000    -1.147000000
H     6.573000000    -1.409000000    -0.733000000
O     1.019000000    -2.484000000     3.376000000
H     0.276000000    -2.023000000     2.987000000
H     1.339000000    -1.893000000     4.057000000
O    -5.867000000     4.550000000    -0.554000000
H    -6.105000000     3.816000000     0.013000000
H    -5.846000000     4.175000000    -1.434000000
O     1.958000000     1.882000000     2.718000000
H     2.795000000     2.344000000     2.760000000
H     1.888000000     1.597000000     1.807000000
O    -4.345000000    -3.426000000     3.535000000
H    -3.733000000    -2.949000000     4.096000000
H    -3.786000000    -3.920000000     2.936000000
O     1.682000000    -6.150000000     2.559000000
H     0.885000000    -6.191000000     2.029000000
H     2.200000000    -6.902000000     2.272000000
O    -2.468000000    -0.257000000    -1.804000000
H    -2.021000000    -0.557000000    -1.012000000
H    -2.170000000     0.645000000    -1.920000000
O    -2.584000000     2.489000000    -2.253000000
H    -2.964000000     2.837000000    -1.446000000
H    -2.962000000     3.028000000    -2.948000000
O    -6.917000000     1.265000000     3.967000000
H    -7.830000000     1.109000000     3.728000000
H    -6.582000000     0.403000000     4.212000000
O     2.786000000     2.537000000    -5.796000000
H     2.907000000     1.608000000    -5.602000000
H     3.163000000     2.990000000    -5.041000000
O    -1.651000000    -5.704000000    -2.566000000
H    -2.196000000    -5.533000000    -1.798000000
H    -0.754000000    -5.679000000    -2.233000000
O     3.319000000    -2.285000000     1.157000000
H     3.611000000    -2.507000000     2.041000000
H     2.368000000    -2.206000000     1.233000000
O     1.551000000    -0.285000000     5.262000000
H     1.596000000    -0.662000000     6.141000000
H     2.453000000    -0.039000000     5.060000000
O     4.234000000    -3.773000000    -0.768000000
H     3.853000000    -3.384000000     0.019000000
H     3.669000000    -3.476000000    -1.481000000
O    -0.298000000    -2.345000000    -3.504000000
H    -0.546000000    -3.031000000    -4.123000000
H     0.588000000    -2.580000000    -3.228000000
O    -0.676000000     4.451000000    -1.680000000
H    -1.138000000     3.639000000    -1.892000000
H    -1.233000000     5.143000000    -2.035000000
O     5.661000000     2.054000000    -1.358000000
H     5.154000000     1.513000000    -0.752000000
H     6.171000000     1.426000000    -1.869000000
O    -0.669000000    -6.382000000     1.008000000
H    -0.529000000    -6.415000000     0.061000000
H    -0.828000000    -7.292000000     1.257000000
O    -1.707000000     3.865000000     2.417000000
H    -1.214000000     3.122000000     2.070000000
H    -1.399000000     3.957000000     3.318000000
O     1.001000000    -5.692000000    -1.926000000
H     1.403000000    -6.455000000    -2.342000000
H     1.729000000    -5.237000000    -1.503000000
O    -1.177000000     0.419000000     5.749000000
H    -0.269000000     0.376000000     5.449000000
H    -1.587000000    -0.366000000     5.385000000
O    -3.726000000     1.410000000     5.798000000
H    -2.954000000     0.845000000     5.792000000
H    -4.374000000     0.926000000     6.310000000
O     0.444000000     5.391000000     4.826000000
H    -0.321000000     5.902000000     5.090000000
H     0.204000000     4.484000000     5.019000000
O    -2.027000000    -0.562000000    -4.605000000
H    -1.406000000    -1.111000000    -4.127000000
H    -2.348000000     0.060000000    -3.953000000
O     5.684000000     0.018000000    -3.478000000
H     4.750000000     0.065000000    -3.277000000
H     6.060000000    -0.481000000    -2.753000000
O     1.251000000     5.798000000     1.927000000
H     2.190000000     5.898000000     2.086000000
H     0.849000000     5.905000000     2.789000000
O     2.502000000     4.917000000    -2.872000000
H     2.775000000     4.006000000    -2.973000000
H     2.034000000     4.937000000    -2.037000000
O    -5.174000000     0.541000000    -1.037000000
H    -4.250000000     0.487000000    -1.281000000
H    -5.559000000    -0.268000000    -1.375000000
