144
-2813.07006
O    -4.536000000     3.283000000     2.926000000
H    -4.428000000     3.080000000     1.997000000
H    -4.202000000     2.510000000     3.381000000
O     4.189000000     2.299000000    -2.792000000
H     5.051000000     1.930000000    -2.984000000
H     3.652000000     1.543000000    -2.554000000
O    -6.235000000    -3.144000000     0.413000000
H    -6.026000000    -3.698000000     1.165000000
H    -5.509000000    -3.281000000    -0.195000000
O     1.528000000    -4.041000000    -1.855000000
H     1.313000000    -4.004000000    -0.923000000
H     2.364000000    -3.580000000    -1.927000000
O     4.633000000    -6.637000000    -0.929000000
H     4.936000000    -6.565000000    -0.025000000
H     4.918000000    -5.823000000    -1.344000000
O    -5.866000000     0.202000000     3.663000000
H    -5.339000000     0.735000000     4.258000000
H    -5.229000000    -0.352000000     3.210000000
O    -4.134000000    -1.822000000     2.227000000
H    -3.513000000    -2.550000000     2.247000000
H    -4.575000000    -1.906000000     1.382000000
O    -2.501000000    -4.536000000     1.768000000
H    -1.544000000    -4.515000000     1.759000000
H    -2.721000000    -5.125000000     2.490000000
O     0.502000000     2.919000000     1.459000000
H     0.459000000     2.694000000     2.389000000
H     0.889000000     2.148000000     1.044000000
O     5.753000000     1.057000000    -5.854000000
H     6.305000000     1.722000000    -6.267000000
H     6.088000000     0.990000000    -4.960000000
O     2.565000000    -2.545000000    -6.113000000
H     3.291000000    -1.986000000    -5.834000000
H     1.998000000    -2.602000000    -5.345000000
O     2.289000000     1.525000000    -5.466000000
H     1.654000000     0.822000000    -5.328000000
H     2.865000000     1.480000000    -4.703000000
O     5.970000000    -3.339000000    -4.625000000
H     5.477000000    -2.541000000    -4.815000000
H     5.572000000    -4.005000000    -5.185000000
O    -1.798000000    -4.125000000     6.075000000
H    -1.273000000    -3.930000000     5.299000000
H    -1.328000000    -3.702000000     6.794000000
O    -3.124000000    -0.746000000    -4.307000000
H    -2.681000000     0.053000000    -4.594000000
H    -2.622000000    -1.039000000    -3.548000000
O    -4.595000000    -2.787000000    -1.674000000
H    -4.731000000    -3.178000000    -2.537000000
H    -3.704000000    -2.438000000    -1.707000000
O    -4.024000000     3.741000000    -0.118000000
H    -4.653000000     4.463000000    -0.104000000
H    -3.251000000     4.088000000     0.327000000
O    -1.191000000    -0.421000000     4.954000000
H    -0.822000000    -0.878000000     4.198000000
H    -0.995000000    -0.990000000     5.698000000
O     7.016000000    -5.229000000    -2.773000000
H     6.490000000    -4.526000000    -3.152000000
H     7.888000000    -4.849000000    -2.672000000
O     5.603000000     0.080000000    -0.777000000
H     4.853000000     0.016000000    -1.369000000
H     5.290000000    -0.291000000     0.048000000
O     7.591000000    -1.822000000    -1.629000000
H     6.948000000    -2.509000000    -1.803000000
H     7.068000000    -1.065000000    -1.364000000
O     0.221000000    -3.247000000     4.613000000
H     0.819000000    -3.698000000     4.017000000
H     0.792000000    -2.729000000     5.179000000
O     3.323000000     4.165000000    -1.150000000
H     3.672000000     3.369000000    -1.552000000
H     3.981000000     4.414000000    -0.501000000
O     1.267000000    -6.122000000     0.740000000
H     0.511000000    -6.554000000     0.342000000
H     1.848000000    -6.840000000     0.991000000
O    -1.429000000     3.390000000    -3.214000000
H    -2.173000000     3.991000000    -3.243000000
H    -1.187000000     3.352000000    -2.289000000
O     4.565000000    -3.854000000     1.736000000
H     5.050000000    -3.271000000     2.320000000
H     4.823000000    -4.734000000     2.009000000
O    -4.908000000     2.009000000    -1.958000000
H    -4.356000000     2.342000000    -2.666000000
H    -4.584000000     2.451000000    -1.173000000
O     2.485000000    -6.488000000    -2.455000000
H     3.180000000    -6.787000000    -1.868000000
H     2.098000000    -5.737000000    -2.006000000
O    -1.604000000     1.437000000    -4.885000000
H    -0.839000000     0.861000000    -4.908000000
H    -1.419000000     2.051000000    -4.174000000
O     1.800000000    -3.966000000     2.553000000
H     2.736000000    -3.886000000     2.369000000
H     1.514000000    -4.708000000     2.020000000
O     5.370000000    -3.404000000    -0.830000000
H     5.356000000    -3.824000000     0.030000000
H     4.807000000    -2.636000000    -0.730000000
O     0.156000000    -3.058000000    -3.973000000
H    -0.236000000    -3.775000000    -4.470000000
H     0.536000000    -3.480000000    -3.202000000
O     6.768000000     1.203000000    -3.125000000
H     7.590000000     0.979000000    -3.560000000
H     6.795000000     0.722000000    -2.298000000
O     2.600000000     5.141000000    -3.712000000
H     2.733000000     4.800000000    -2.827000000
H     3.467000000     5.443000000    -3.984000000
O    -1.851000000     4.964000000     3.303000000
H    -2.383000000     4.187000000     3.129000000
H    -2.220000000     5.639000000     2.733000000
O    -5.594000000    -0.176000000    -0.700000000
H    -5.268000000     0.577000000    -1.192000000
H    -5.317000000    -0.935000000    -1.212000000
O    -1.360000000     4.543000000    -0.247000000
H    -0.855000000     5.328000000    -0.033000000
H    -1.000000000     3.864000000     0.323000000
O     0.000000000    -0.630000000    -5.470000000
H    -0.089000000    -0.911000000    -6.380000000
H     0.177000000    -1.437000000    -4.986000000
O     2.707000000    -0.584000000     3.989000000
H     2.626000000    -1.131000000     4.770000000
H     1.963000000     0.016000000     4.039000000
O     0.785000000     1.168000000     4.159000000
H     0.039000000     0.841000000     4.662000000
H     0.800000000     2.108000000     4.338000000
O     4.369000000    -0.840000000     1.620000000
H     4.016000000    -1.570000000     1.112000000
H     3.736000000    -0.712000000     2.326000000
O    -3.493000000     1.076000000     4.674000000
H    -2.588000000     0.782000000     4.572000000
H    -3.769000000     0.716000000     5.517000000
O    -1.950000000    -2.330000000    -1.630000000
H    -1.385000000    -3.001000000    -2.013000000
H    -1.358000000    -1.788000000    -1.108000000
O    -3.278000000     6.219000000     1.527000000
H    -2.952000000     6.530000000     0.682000000
H    -4.115000000     6.670000000     1.641000000
O     4.118000000    -0.983000000    -4.566000000
H     4.296000000    -0.178000000    -5.052000000
H     3.884000000    -0.685000000    -3.687000000
O     0.952000000     5.887000000    -0.832000000
H     0.440000000     5.447000000    -1.511000000
H     1.735000000     5.345000000    -0.734000000
O     1.154000000     3.891000000    -5.839000000
H     1.450000000     2.990000000    -5.704000000
H     1.456000000     4.361000000    -5.062000000
O    -7.485000000     0.523000000     1.315000000
H    -6.916000000     0.417000000     2.077000000
H    -7.072000000    -0.007000000     0.633000000
