144
-2799.35652
O    -4.742000000     2.788000000     3.152000000
H    -5.004000000     2.805000000     2.232000000
H    -4.094000000     2.086000000     3.204000000
O     2.701000000    -1.221000000    -5.874000000
H     2.111000000    -1.818000000    -6.333000000
H     2.265000000    -1.047000000    -5.040000000
O     3.532000000    -4.272000000    -4.017000000
H     2.645000000    -4.278000000    -3.658000000
H     3.746000000    -3.344000000    -4.110000000
O    -7.080000000     0.718000000     2.745000000
H    -6.225000000     0.298000000     2.835000000
H    -6.995000000     1.272000000     1.970000000
O     3.732000000     1.600000000    -0.979000000
H     4.125000000     2.267000000    -0.416000000
H     4.106000000     0.775000000    -0.670000000
O     5.939000000    -4.342000000     0.715000000
H     6.460000000    -3.555000000     0.556000000
H     5.031000000    -4.045000000     0.654000000
O     1.895000000     2.969000000     2.649000000
H     2.139000000     2.253000000     3.235000000
H     1.075000000     3.305000000     3.011000000
O    -3.980000000     4.880000000     4.631000000
H    -3.646000000     4.370000000     5.368000000
H    -4.369000000     4.230000000     4.046000000
O    -0.330000000    -1.803000000    -4.845000000
H     0.444000000    -1.592000000    -4.322000000
H    -0.051000000    -2.530000000    -5.402000000
O     3.321000000     2.401000000    -6.165000000
H     4.109000000     1.910000000    -6.397000000
H     3.053000000     2.039000000    -5.321000000
O     4.992000000    -5.373000000    -2.127000000
H     4.609000000    -4.987000000    -1.340000000
H     4.386000000    -5.134000000    -2.829000000
O     0.052000000    -3.356000000     5.329000000
H     0.011000000    -3.224000000     4.382000000
H     0.983000000    -3.482000000     5.513000000
O    -4.102000000    -1.087000000    -4.548000000
H    -3.753000000    -0.262000000    -4.210000000
H    -4.324000000    -1.592000000    -3.766000000
O    -6.291000000     2.270000000     0.794000000
H    -6.347000000     1.715000000     0.017000000
H    -6.020000000     3.125000000     0.459000000
O    -1.842000000     3.682000000    -3.161000000
H    -0.889000000     3.666000000    -3.246000000
H    -2.164000000     3.450000000    -4.032000000
O    -2.731000000    -3.205000000     4.733000000
H    -2.032000000    -3.759000000     5.081000000
H    -2.403000000    -2.909000000     3.884000000
O     6.388000000    -0.125000000    -2.145000000
H     7.114000000    -0.531000000    -2.618000000
H     6.736000000     0.715000000    -1.847000000
O     3.864000000    -2.025000000     2.170000000
H     3.423000000    -2.666000000     1.612000000
H     4.345000000    -1.466000000     1.560000000
O    -1.949000000    -2.371000000     0.168000000
H    -1.758000000    -2.626000000    -0.734000000
H    -1.337000000    -1.659000000     0.351000000
O     2.965000000     1.250000000    -3.532000000
H     2.464000000     0.441000000    -3.626000000
H     3.098000000     1.341000000    -2.588000000
O     1.274000000    -5.508000000    -2.747000000
H     0.572000000    -5.361000000    -3.382000000
H     0.819000000    -5.752000000    -1.940000000
O     1.006000000     3.768000000    -3.253000000
H     1.858000000     3.381000000    -3.453000000
H     0.991000000     3.836000000    -2.299000000
O     0.944000000    -5.238000000     2.970000000
H     1.884000000    -5.396000000     3.065000000
H     0.537000000    -6.073000000     3.200000000
O     0.568000000    -6.540000000     0.294000000
H     0.683000000    -5.930000000     1.023000000
H     1.056000000    -7.320000000     0.555000000
O    -1.067000000     1.793000000     5.282000000
H    -1.933000000     1.392000000     5.351000000
H    -1.032000000     2.416000000     6.008000000
O    -5.894000000     0.466000000    -1.452000000
H    -6.146000000     0.618000000    -2.363000000
H    -6.167000000    -0.435000000    -1.276000000
O    -2.979000000     0.818000000    -2.938000000
H    -2.839000000     1.760000000    -2.841000000
H    -3.458000000     0.564000000    -2.150000000
O     5.014000000     3.520000000    -2.918000000
H     4.457000000     2.745000000    -2.850000000
H     5.163000000     3.788000000    -2.011000000
O    -2.358000000    -2.294000000    -6.981000000
H    -2.442000000    -1.929000000    -6.100000000
H    -1.735000000    -3.015000000    -6.883000000
O    -1.035000000    -3.122000000     2.588000000
H    -1.298000000    -2.957000000     1.682000000
H    -0.379000000    -3.816000000     2.524000000
O     3.394000000    -0.531000000     4.527000000
H     3.901000000    -1.000000000     5.190000000
H     3.658000000    -0.929000000     3.697000000
O    -0.343000000     3.933000000     3.836000000
H    -0.620000000     3.095000000     4.208000000
H    -0.507000000     4.569000000     4.533000000
O     3.292000000    -4.098000000    -0.057000000
H     2.560000000    -4.712000000    -0.123000000
H     3.067000000    -3.391000000    -0.662000000
O     0.377000000    -3.802000000    -6.688000000
H    -0.420000000    -4.321000000    -6.803000000
H     1.079000000    -4.368000000    -7.009000000
O     4.031000000     0.135000000    -7.973000000
H     3.607000000    -0.007000000    -7.126000000
H     4.835000000    -0.382000000    -7.927000000
O    -0.622000000     4.879000000     1.361000000
H    -0.712000000     4.416000000     2.195000000
H    -1.398000000     5.438000000     1.313000000
O    -5.010000000    -0.935000000     3.314000000
H    -4.503000000    -1.747000000     3.338000000
H    -4.696000000    -0.435000000     4.068000000
O     0.906000000     3.542000000    -0.533000000
H     0.272000000     3.833000000     0.123000000
H     0.962000000     2.595000000    -0.409000000
O    -0.813000000     0.745000000    -5.800000000
H    -0.759000000    -0.176000000    -5.544000000
H    -1.065000000     1.202000000    -4.997000000
O     2.294000000     1.877000000     5.178000000
H     2.524000000     0.948000000     5.158000000
H     1.858000000     1.997000000     6.022000000
O     0.137000000    -0.590000000     6.174000000
H    -0.178000000     0.135000000     5.634000000
H     0.007000000    -1.367000000     5.630000000
O     4.674000000    -1.060000000    -0.444000000
H     5.277000000    -0.718000000    -1.104000000
H     3.934000000    -1.400000000    -0.948000000
O    -3.624000000     0.245000000     5.293000000
H    -4.041000000     0.977000000     5.749000000
H    -3.139000000    -0.218000000     5.976000000
O     2.988000000     4.996000000     1.135000000
H     2.525000000     4.252000000     1.521000000
H     2.375000000     5.352000000     0.491000000
O    -1.520000000    -2.747000000    -2.566000000
H    -1.457000000    -3.550000000    -3.083000000
H    -1.381000000    -2.043000000    -3.200000000
O    -5.481000000     4.493000000    -0.373000000
H    -6.269000000     4.729000000    -0.863000000
H    -4.786000000     4.477000000    -1.032000000
O    -3.161000000     6.300000000     0.715000000
H    -2.794000000     6.597000000    -0.118000000
H    -4.085000000     6.138000000     0.524000000
O     5.068000000    -1.758000000    -4.402000000
H     4.938000000    -1.156000000    -3.669000000
H     4.445000000    -1.464000000    -5.067000000
