144
-2808.91181
O    -4.764000000     3.333000000     1.363000000
H    -5.531000000     3.496000000     1.911000000
H    -4.991000000     2.553000000     0.857000000
O    -1.068000000    -0.628000000    -4.169000000
H    -0.731000000    -0.444000000    -3.292000000
H    -0.295000000    -0.881000000    -4.674000000
O     3.933000000     6.030000000    -2.670000000
H     3.238000000     5.691000000    -2.105000000
H     3.797000000     6.977000000    -2.674000000
O    -3.246000000    -1.438000000     3.756000000
H    -3.062000000    -2.266000000     3.312000000
H    -3.988000000    -1.632000000     4.328000000
O     0.327000000     6.581000000    -3.305000000
H    -0.464000000     6.045000000    -3.359000000
H     0.880000000     6.128000000    -2.669000000
O     6.544000000    -0.511000000    -0.396000000
H     6.225000000     0.176000000    -0.980000000
H     6.007000000    -1.275000000    -0.609000000
O    -4.871000000     7.310000000    -0.495000000
H    -4.345000000     6.517000000    -0.395000000
H    -5.367000000     7.374000000     0.321000000
O     3.897000000     0.654000000    -5.827000000
H     4.057000000    -0.241000000    -6.126000000
H     3.287000000     0.556000000    -5.096000000
O     4.611000000    -2.467000000     0.151000000
H     4.833000000    -3.013000000     0.905000000
H     3.800000000    -2.846000000    -0.188000000
O     3.108000000    -2.978000000    -4.660000000
H     2.651000000    -2.554000000    -3.933000000
H     2.409000000    -3.348000000    -5.199000000
O     2.529000000     2.676000000     3.507000000
H     2.178000000     1.969000000     2.966000000
H     3.375000000     2.885000000     3.109000000
O     0.474000000     4.034000000     4.865000000
H     0.674000000     4.732000000     4.241000000
H     1.194000000     3.411000000     4.767000000
O    -5.492000000     1.078000000    -0.071000000
H    -5.121000000     0.243000000     0.214000000
H    -5.827000000     0.904000000    -0.950000000
O    -0.512000000    -3.238000000     3.381000000
H    -0.686000000    -3.299000000     4.320000000
H    -0.134000000    -2.366000000     3.263000000
O     2.776000000    -6.561000000    -3.820000000
H     3.308000000    -6.125000000    -3.154000000
H     1.873000000    -6.417000000    -3.537000000
O    -3.715000000    -1.005000000     1.032000000
H    -3.664000000    -0.546000000     1.871000000
H    -3.370000000    -1.879000000     1.216000000
O     4.335000000     3.136000000    -4.500000000
H     3.855000000     3.092000000    -3.673000000
H     4.389000000     2.227000000    -4.794000000
O     1.484000000     3.667000000     0.863000000
H     2.365000000     3.939000000     1.122000000
H     0.952000000     3.802000000     1.647000000
O    -3.455000000     7.172000000     2.909000000
H    -3.239000000     6.292000000     3.215000000
H    -4.396000000     7.256000000     3.066000000
O     5.319000000    -6.907000000    -1.979000000
H     6.184000000    -6.965000000    -1.573000000
H     5.154000000    -5.967000000    -2.056000000
O     3.163000000     0.168000000     2.179000000
H     3.763000000     0.902000000     2.306000000
H     3.607000000    -0.400000000     1.549000000
O    -2.226000000    -0.981000000    -1.346000000
H    -1.745000000    -0.435000000    -0.724000000
H    -3.094000000    -1.081000000    -0.957000000
O    -2.001000000    -3.720000000    -0.568000000
H    -2.719000000    -4.103000000    -1.072000000
H    -1.823000000    -2.885000000    -1.001000000
O    -3.346000000     4.951000000    -0.771000000
H    -3.613000000     4.234000000    -1.346000000
H    -3.272000000     4.549000000     0.095000000
O    -2.728000000    -3.411000000     1.982000000
H    -1.854000000    -3.455000000     2.370000000
H    -2.627000000    -3.810000000     1.118000000
O     1.655000000    -0.937000000     4.101000000
H     1.873000000    -0.424000000     3.322000000
H     2.434000000    -1.470000000     4.262000000
O     5.039000000    -4.562000000     2.286000000
H     5.212000000    -4.632000000     3.225000000
H     4.734000000    -5.434000000     2.033000000
O    -0.130000000    -6.054000000     2.908000000
H     0.678000000    -6.366000000     2.502000000
H    -0.079000000    -5.100000000     2.842000000
O    -3.797000000     2.716000000    -2.076000000
H    -3.268000000     2.290000000    -2.751000000
H    -4.180000000     1.992000000    -1.580000000
O     3.274000000     2.869000000    -2.018000000
H     2.889000000     2.025000000    -1.783000000
H     2.868000000     3.493000000    -1.417000000
O     1.716000000    -5.373000000     0.368000000
H     1.868000000    -4.552000000    -0.099000000
H     2.587000000    -5.758000000     0.465000000
O    -1.011000000    -6.246000000    -0.319000000
H    -1.348000000    -5.359000000    -0.190000000
H    -0.171000000    -6.252000000     0.140000000
O    -1.097000000     0.192000000     4.473000000
H    -1.774000000    -0.382000000     4.116000000
H    -0.277000000    -0.163000000     4.130000000
O    -3.662000000     4.010000000     3.653000000
H    -3.928000000     3.703000000     2.786000000
H    -3.876000000     3.286000000     4.240000000
O     4.215000000    -4.354000000    -2.454000000
H     4.273000000    -3.979000000    -3.332000000
H     3.634000000    -3.762000000    -1.978000000
O    -4.307000000     1.833000000     5.546000000
H    -4.502000000     0.897000000     5.504000000
H    -3.439000000     1.879000000     5.947000000
O    -2.178000000     6.203000000     5.670000000
H    -2.436000000     5.643000000     6.402000000
H    -2.485000000     5.738000000     4.892000000
O     0.815000000    -1.224000000    -6.247000000
H     0.736000000    -2.178000000    -6.258000000
H     1.154000000    -1.001000000    -7.114000000
O     3.898000000     0.127000000    -2.836000000
H     3.349000000    -0.654000000    -2.754000000
H     4.702000000    -0.188000000    -3.249000000
O     6.247000000    -2.448000000    -5.413000000
H     6.161000000    -2.346000000    -6.360000000
H     5.469000000    -2.942000000    -5.153000000
O     0.250000000    -4.892000000    -2.951000000
H    -0.180000000    -5.327000000    -2.215000000
H     0.660000000    -4.117000000    -2.565000000
O    -1.629000000     2.461000000     5.927000000
H    -1.043000000     3.123000000     5.559000000
H    -1.504000000     1.694000000     5.369000000
O    -1.203000000    -3.211000000     5.942000000
H    -1.200000000    -4.049000000     6.405000000
H    -0.906000000    -2.576000000     6.595000000
O     6.120000000     1.888000000    -1.869000000
H     5.281000000     2.328000000    -2.009000000
H     6.432000000     1.682000000    -2.750000000
O     1.601000000     5.483000000    -1.095000000
H     1.339000000     4.683000000    -0.639000000
H     1.424000000     6.185000000    -0.469000000
O    -1.745000000     1.886000000    -3.586000000
H    -1.368000000     2.245000000    -4.389000000
H    -1.714000000     0.937000000    -3.709000000
O     4.007000000    -6.812000000     1.196000000
H     3.445000000    -7.542000000     1.456000000
H     4.212000000    -6.982000000     0.277000000
O    -1.826000000     5.057000000    -4.106000000
H    -1.342000000     4.721000000    -4.861000000
H    -1.951000000     4.293000000    -3.543000000
