144
-2842.14361
O    -4.561000000     5.442000000     0.422000000
H    -4.386000000     5.112000000    -0.459000000
H    -5.104000000     6.218000000     0.285000000
O     5.963000000    -4.222000000     2.873000000
H     5.022000000    -4.253000000     3.048000000
H     6.117000000    -3.335000000     2.549000000
O     6.659000000    -1.531000000    -1.465000000
H     6.052000000    -1.874000000    -0.809000000
H     7.435000000    -2.085000000    -1.386000000
O     0.630000000    -8.005000000     0.840000000
H     1.445000000    -8.035000000     0.339000000
H    -0.057000000    -8.140000000     0.187000000
O     3.415000000     4.706000000    -0.300000000
H     3.596000000     5.224000000     0.484000000
H     2.472000000     4.796000000    -0.434000000
O     1.284000000     3.608000000    -4.004000000
H     0.362000000     3.830000000    -4.137000000
H     1.723000000     4.453000000    -3.910000000
O    -4.004000000     3.920000000     2.852000000
H    -3.302000000     3.283000000     2.725000000
H    -4.181000000     4.261000000     1.975000000
O    -1.579000000     5.567000000    -0.710000000
H    -2.486000000     5.685000000    -0.426000000
H    -1.567000000     4.700000000    -1.117000000
O     1.115000000     0.798000000    -3.667000000
H     1.544000000     0.276000000    -2.989000000
H     1.319000000     1.705000000    -3.436000000
O     1.900000000    -4.304000000     5.681000000
H     1.198000000    -3.658000000     5.602000000
H     2.122000000    -4.528000000     4.777000000
O    -1.100000000     4.588000000    -4.615000000
H    -0.936000000     4.940000000    -5.491000000
H    -2.050000000     4.637000000    -4.512000000
O    -1.696000000    -2.367000000     3.477000000
H    -1.165000000    -2.889000000     2.876000000
H    -1.065000000    -1.990000000     4.089000000
O    -3.983000000     4.459000000    -1.915000000
H    -4.241000000     3.540000000    -1.993000000
H    -3.878000000     4.756000000    -2.818000000
O     1.205000000     0.428000000    -6.750000000
H     1.478000000     1.055000000    -6.080000000
H     1.573000000    -0.407000000    -6.460000000
O    -0.291000000     3.878000000     2.693000000
H     0.028000000     4.258000000     3.512000000
H     0.347000000     4.155000000     2.036000000
O     5.326000000     0.375000000     0.585000000
H     4.793000000     0.751000000     1.286000000
H     5.510000000     1.112000000     0.002000000
O    -1.127000000     1.143000000     2.930000000
H    -0.946000000     0.822000000     2.047000000
H    -0.710000000     2.004000000     2.962000000
O    -2.722000000    -4.936000000     0.765000000
H    -3.523000000    -4.979000000     1.287000000
H    -2.078000000    -4.530000000     1.346000000
O     0.784000000     5.894000000     0.419000000
H     0.781000000     6.837000000     0.585000000
H    -0.124000000     5.686000000     0.201000000
O    -1.104000000    -0.492000000    -4.481000000
H    -0.856000000    -1.417000000    -4.470000000
H    -0.294000000    -0.025000000    -4.275000000
O    -2.211000000    -7.571000000    -0.242000000
H    -2.311000000    -8.039000000     0.588000000
H    -2.046000000    -6.664000000     0.013000000
O    -2.830000000    -0.560000000    -2.315000000
H    -2.141000000    -0.200000000    -1.756000000
H    -2.566000000    -0.322000000    -3.203000000
O     3.480000000    -0.855000000    -2.077000000
H     3.690000000    -0.213000000    -1.398000000
H     3.675000000    -1.701000000    -1.674000000
O    -3.467000000    -2.594000000     5.656000000
H    -2.791000000    -2.496000000     4.985000000
H    -4.007000000    -3.322000000     5.347000000
O    -3.984000000     4.616000000    -4.484000000
H    -4.887000000     4.314000000    -4.384000000
H    -4.058000000     5.438000000    -4.968000000
O    -4.599000000     1.758000000    -1.869000000
H    -5.299000000     1.542000000    -1.253000000
H    -4.110000000     0.941000000    -1.972000000
O     5.245000000     2.699000000    -0.898000000
H     4.592000000     3.398000000    -0.865000000
H     6.086000000     3.154000000    -0.842000000
O     5.539000000    -0.655000000    -3.622000000
H     6.099000000    -0.921000000    -2.893000000
H     4.650000000    -0.845000000    -3.322000000
O    -4.494000000    -4.621000000     3.019000000
H    -5.066000000    -4.512000000     3.778000000
H    -3.706000000    -5.036000000     3.370000000
O    -0.181000000    -5.868000000     2.748000000
H    -0.168000000    -5.061000000     2.233000000
H     0.346000000    -6.485000000     2.240000000
O    -4.644000000    -1.939000000    -0.637000000
H    -4.057000000    -1.339000000    -1.097000000
H    -4.435000000    -1.815000000     0.289000000
O     0.637000000    -5.233000000    -0.687000000
H     1.004000000    -4.542000000    -0.136000000
H    -0.243000000    -4.925000000    -0.904000000
O    -0.552000000     7.569000000    -2.120000000
H    -0.968000000     6.803000000    -1.724000000
H    -1.073000000     7.748000000    -2.902000000
O     5.590000000     2.089000000    -3.535000000
H     5.578000000     1.137000000    -3.634000000
H     5.395000000     2.236000000    -2.610000000
O     4.361000000    -5.910000000    -0.999000000
H     4.507000000    -5.619000000    -0.099000000
H     5.239000000    -5.976000000    -1.375000000
O     3.141000000    -3.984000000     3.140000000
H     2.599000000    -3.828000000     2.366000000
H     3.258000000    -3.118000000     3.529000000
O    -0.284000000    -1.610000000     5.713000000
H     0.275000000    -1.520000000     6.484000000
H    -0.852000000    -0.841000000     5.738000000
O    -2.015000000     0.726000000     5.466000000
H    -1.874000000     0.835000000     4.526000000
H    -1.721000000     1.552000000     5.850000000
O     6.574000000    -1.771000000     1.990000000
H     7.506000000    -1.939000000     1.852000000
H     6.398000000    -0.972000000     1.493000000
O     3.358000000    -1.398000000     3.789000000
H     3.887000000    -0.600000000     3.816000000
H     2.570000000    -1.146000000     3.307000000
O    -4.646000000    -4.917000000    -1.957000000
H    -4.921000000    -4.025000000    -1.746000000
H    -5.199000000    -5.475000000    -1.409000000
O    -2.261000000     2.034000000    -5.484000000
H    -1.932000000     1.211000000    -5.123000000
H    -1.645000000     2.697000000    -5.170000000
O     3.835000000    -3.164000000    -0.515000000
H     3.056000000    -3.086000000     0.035000000
H     3.830000000    -4.074000000    -0.810000000
O    -2.287000000    -5.534000000     4.382000000
H    -1.513000000    -5.549000000     3.819000000
H    -2.065000000    -6.115000000     5.110000000
O     4.399000000    -6.745000000     2.118000000
H     4.198000000    -7.442000000     2.743000000
H     3.913000000    -5.986000000     2.440000000
O     1.661000000     6.459000000    -3.264000000
H     2.339000000     7.001000000    -2.861000000
H     0.848000000     6.741000000    -2.846000000
O    -1.823000000    -4.365000000    -1.765000000
H    -2.308000000    -4.371000000    -0.939000000
H    -2.501000000    -4.324000000    -2.440000000
O    -4.025000000    -2.156000000     1.976000000
H    -4.501000000    -2.905000000     2.334000000
H    -3.123000000    -2.283000000     2.269000000
