144
-2810.07887
O    -0.305000000     0.576000000     3.083000000
H    -1.175000000     0.501000000     3.475000000
H    -0.452000000     0.449000000     2.146000000
O    -3.813000000     4.427000000     3.124000000
H    -2.988000000     4.054000000     3.435000000
H    -4.361000000     3.666000000     2.930000000
O    -2.042000000     4.303000000    -5.364000000
H    -1.862000000     3.443000000    -5.743000000
H    -2.033000000     4.901000000    -6.111000000
O     6.166000000    -0.848000000    -2.736000000
H     6.540000000    -0.001000000    -2.492000000
H     6.433000000    -0.974000000    -3.647000000
O     1.389000000     6.025000000    -0.772000000
H     0.755000000     6.348000000    -1.413000000
H     1.945000000     5.424000000    -1.267000000
O    -0.064000000     3.533000000    -3.818000000
H    -0.634000000     4.010000000    -4.421000000
H    -0.609000000     2.819000000    -3.486000000
O     3.015000000    -5.565000000    -0.254000000
H     2.706000000    -5.908000000     0.585000000
H     2.947000000    -4.615000000    -0.164000000
O     2.411000000     3.342000000    -5.741000000
H     3.000000000     2.623000000    -5.513000000
H     1.868000000     3.464000000    -4.962000000
O    -2.865000000     5.602000000    -0.091000000
H    -3.760000000     5.561000000     0.245000000
H    -2.930000000     6.143000000    -0.879000000
O     2.864000000     3.037000000     2.586000000
H     3.466000000     2.419000000     2.172000000
H     2.429000000     3.474000000     1.853000000
O     1.092000000    -1.794000000     3.457000000
H     1.779000000    -1.449000000     2.888000000
H     0.436000000    -1.098000000     3.490000000
O    -5.808000000     4.728000000    -1.079000000
H    -5.021000000     4.546000000    -1.593000000
H    -6.332000000     3.930000000    -1.151000000
O    -3.544000000     4.949000000    -2.751000000
H    -2.936000000     5.565000000    -3.161000000
H    -3.449000000     4.144000000    -3.260000000
O    -6.678000000     3.698000000    -4.304000000
H    -6.309000000     3.161000000    -3.603000000
H    -7.449000000     3.212000000    -4.597000000
O    -1.073000000     3.615000000     3.256000000
H    -0.838000000     3.892000000     2.371000000
H    -0.876000000     2.679000000     3.275000000
O    -6.203000000     0.900000000     0.876000000
H    -5.993000000     0.892000000    -0.057000000
H    -6.651000000     1.735000000     1.014000000
O     1.748000000     1.741000000     4.834000000
H     0.981000000     1.406000000     4.368000000
H     2.293000000     2.130000000     4.149000000
O     1.022000000    -4.336000000     2.638000000
H     1.153000000    -3.887000000     3.473000000
H     1.669000000    -3.944000000     2.051000000
O     1.570000000    -6.837000000     1.671000000
H     1.400000000    -6.035000000     2.165000000
H     0.967000000    -7.480000000     2.044000000
O    -2.306000000    -1.615000000    -3.617000000
H    -1.846000000    -2.453000000    -3.578000000
H    -2.866000000    -1.686000000    -4.390000000
O     0.815000000    -1.942000000    -3.049000000
H     1.489000000    -1.466000000    -3.535000000
H     0.572000000    -1.352000000    -2.336000000
O     4.107000000    -2.558000000    -2.186000000
H     3.746000000    -2.117000000    -1.417000000
H     4.853000000    -2.018000000    -2.445000000
O     3.406000000    -0.132000000     2.853000000
H     4.250000000    -0.421000000     3.200000000
H     3.562000000    -0.006000000     1.917000000
O    -4.627000000     0.948000000    -5.191000000
H    -5.280000000     0.629000000    -4.568000000
H    -5.068000000     1.658000000    -5.658000000
O    -6.671000000    -2.557000000    -0.546000000
H    -6.107000000    -2.172000000    -1.216000000
H    -7.547000000    -2.235000000    -0.757000000
O     5.396000000     1.855000000     1.598000000
H     5.624000000     2.458000000     0.891000000
H     6.216000000     1.722000000     2.073000000
O    -2.810000000    -2.801000000     2.558000000
H    -3.491000000    -3.417000000     2.288000000
H    -2.024000000    -3.339000000     2.653000000
O    -1.094000000    -6.516000000    -1.109000000
H    -0.823000000    -7.068000000    -1.842000000
H    -0.700000000    -5.663000000    -1.294000000
O    -0.995000000     1.973000000    -6.333000000
H    -0.422000000     1.309000000    -6.716000000
H    -1.255000000     1.607000000    -5.488000000
O     9.007000000     0.223000000     0.667000000
H     8.943000000     1.099000000     1.047000000
H     8.144000000    -0.165000000     0.811000000
O     2.495000000     4.084000000    -2.617000000
H     2.970000000     3.313000000    -2.926000000
H     1.619000000     3.990000000    -2.990000000
O     3.717000000    -3.535000000     5.136000000
H     3.410000000    -2.687000000     5.456000000
H     3.054000000    -4.158000000     5.435000000
O    -1.651000000    -5.199000000     1.746000000
H    -0.734000000    -5.095000000     2.002000000
H    -1.676000000    -6.032000000     1.276000000
O     6.157000000    -1.941000000     0.380000000
H     5.255000000    -1.634000000     0.288000000
H     6.394000000    -2.253000000    -0.493000000
O    -4.358000000    -1.596000000    -1.956000000
H    -3.785000000    -1.333000000    -2.676000000
H    -3.856000000    -2.255000000    -1.478000000
O    -2.547000000    -0.364000000     4.013000000
H    -2.545000000    -1.134000000     3.445000000
H    -3.052000000    -0.634000000     4.780000000
O    -6.192000000     1.880000000    -2.215000000
H    -6.200000000     0.972000000    -1.912000000
H    -7.023000000     2.242000000    -1.906000000
O     5.515000000    -4.908000000    -1.109000000
H     4.845000000    -4.523000000    -1.674000000
H     5.295000000    -4.596000000    -0.231000000
O     7.726000000    -2.879000000     2.119000000
H     7.902000000    -3.624000000     1.545000000
H     6.965000000    -2.450000000     1.728000000
O    -3.468000000    -3.818000000    -0.578000000
H    -2.732000000    -4.167000000    -0.075000000
H    -4.140000000    -3.632000000     0.079000000
O    -1.969000000     1.165000000    -3.953000000
H    -2.835000000     1.034000000    -4.338000000
H    -2.006000000     0.700000000    -3.117000000
O     4.657000000    -4.242000000     2.259000000
H     4.421000000    -4.042000000     3.165000000
H     3.968000000    -3.833000000     1.736000000
O     5.154000000    -6.719000000     1.114000000
H     5.455000000    -5.916000000     1.540000000
H     4.405000000    -6.443000000     0.586000000
O     3.761000000     1.583000000    -3.927000000
H     4.618000000     1.646000000    -3.504000000
H     3.656000000     0.651000000    -4.116000000
O    -5.374000000    -3.661000000     1.676000000
H    -5.741000000    -3.425000000     2.528000000
H    -5.902000000    -3.173000000     1.045000000
O    -0.651000000     4.365000000     0.825000000
H    -1.470000000     4.838000000     0.677000000
H    -0.047000000     4.720000000     0.172000000
O    -4.324000000     1.541000000     3.390000000
H    -4.612000000     1.134000000     2.573000000
H    -3.568000000     1.021000000     3.664000000
O     0.269000000    -4.560000000    -2.513000000
H     1.075000000    -5.076000000    -2.506000000
H     0.549000000    -3.682000000    -2.775000000
