144
-2815.66749
O     4.342000000    -2.653000000    -0.920000000
H     3.676000000    -3.067000000    -0.371000000
H     4.733000000    -3.378000000    -1.409000000
O     0.180000000     0.168000000     6.010000000
H     0.508000000     1.063000000     5.927000000
H     0.154000000    -0.163000000     5.112000000
O     2.152000000     3.139000000    -3.492000000
H     1.643000000     3.503000000    -4.217000000
H     2.958000000     2.822000000    -3.901000000
O    -0.449000000    -5.827000000     0.926000000
H    -1.384000000    -5.905000000     1.114000000
H    -0.372000000    -6.046000000    -0.003000000
O     0.851000000     0.226000000     8.607000000
H     0.661000000     0.305000000     7.673000000
H     1.580000000    -0.393000000     8.652000000
O    -0.428000000     3.198000000     4.334000000
H    -0.202000000     3.722000000     5.103000000
H    -0.133000000     3.724000000     3.591000000
O    -5.940000000     4.014000000     0.719000000
H    -5.134000000     4.529000000     0.773000000
H    -6.618000000     4.596000000     1.064000000
O     1.939000000     1.605000000     3.860000000
H     1.060000000     1.912000000     3.639000000
H     2.303000000     1.301000000     3.029000000
O    -2.093000000     0.745000000    -6.461000000
H    -1.769000000     1.442000000    -7.031000000
H    -1.331000000     0.482000000    -5.946000000
O     0.453000000     0.099000000    -5.651000000
H     1.162000000     0.398000000    -6.222000000
H     0.881000000    -0.084000000    -4.815000000
O    -5.820000000     1.905000000     2.539000000
H    -5.059000000     1.341000000     2.401000000
H    -5.751000000     2.572000000     1.856000000
O    -0.906000000    -2.641000000    -4.565000000
H    -0.424000000    -2.065000000    -5.158000000
H    -1.633000000    -2.104000000    -4.248000000
O    -3.356000000    -1.418000000    -4.297000000
H    -3.959000000    -0.677000000    -4.352000000
H    -3.634000000    -2.006000000    -5.000000000
O    -1.042000000     5.016000000     1.011000000
H    -0.776000000     5.864000000     0.655000000
H    -0.353000000     4.792000000     1.637000000
O    -4.129000000     0.644000000    -0.615000000
H    -4.156000000     1.599000000    -0.672000000
H    -3.394000000     0.391000000    -1.173000000
O    -0.131000000     5.291000000    -2.784000000
H    -0.051000000     4.402000000    -2.437000000
H     0.769000000     5.556000000    -2.974000000
O    -3.682000000     5.212000000     1.477000000
H    -3.831000000     4.677000000     2.257000000
H    -2.778000000     5.023000000     1.226000000
O     1.581000000     4.698000000     2.485000000
H     2.049000000     4.883000000     1.671000000
H     2.253000000     4.360000000     3.076000000
O     3.928000000     1.769000000    -5.173000000
H     3.671000000     1.016000000    -4.640000000
H     3.540000000     1.598000000    -6.031000000
O    -0.236000000    -4.355000000     5.794000000
H    -1.138000000    -4.037000000     5.763000000
H     0.008000000    -4.475000000     4.876000000
O    -3.928000000     2.645000000    -5.637000000
H    -3.464000000     2.387000000    -6.434000000
H    -3.931000000     1.855000000    -5.096000000
O     2.598000000    -0.257000000    -3.714000000
H     3.152000000    -1.028000000    -3.591000000
H     2.401000000     0.041000000    -2.826000000
O    -6.422000000     2.730000000    -3.130000000
H    -5.658000000     2.675000000    -2.556000000
H    -6.439000000     1.888000000    -3.587000000
O    -1.632000000     5.017000000    -5.539000000
H    -1.637000000     4.121000000    -5.874000000
H    -1.127000000     4.967000000    -4.727000000
O     3.906000000     1.790000000     1.541000000
H     4.028000000     2.148000000     0.662000000
H     3.888000000     0.842000000     1.414000000
O    -3.431000000     0.604000000     2.092000000
H    -3.381000000     0.444000000     1.149000000
H    -2.830000000    -0.035000000     2.475000000
O    -4.097000000     3.355000000    -1.717000000
H    -3.789000000     4.194000000    -2.060000000
H    -4.650000000     3.590000000    -0.971000000
O    -2.501000000    -0.179000000     6.107000000
H    -1.560000000    -0.032000000     6.206000000
H    -2.607000000    -0.447000000     5.194000000
O     1.422000000    -2.593000000     7.257000000
H     1.635000000    -2.182000000     6.419000000
H     0.741000000    -3.231000000     7.044000000
O    -1.873000000    -3.022000000     1.405000000
H    -2.025000000    -3.879000000     1.805000000
H    -1.870000000    -3.195000000     0.464000000
O     1.486000000     2.380000000     6.741000000
H     1.913000000     2.468000000     5.889000000
H     2.168000000     2.033000000     7.316000000
O     3.968000000    -0.850000000     1.111000000
H     4.314000000    -1.220000000     0.299000000
H     3.273000000    -1.454000000     1.372000000
O    -3.064000000     2.907000000     3.396000000
H    -3.237000000     2.108000000     2.898000000
H    -2.166000000     2.803000000     3.710000000
O     4.433000000    -2.411000000    -4.513000000
H     4.759000000    -3.058000000    -3.887000000
H     5.161000000    -1.801000000    -4.627000000
O     0.710000000    -4.389000000     3.098000000
H     0.489000000    -4.447000000     2.169000000
H     1.222000000    -3.584000000     3.173000000
O     2.783000000    -2.059000000     5.022000000
H     3.324000000    -1.272000000     4.950000000
H     2.235000000    -2.045000000     4.237000000
O     4.833000000    -0.245000000    -1.893000000
H     5.358000000    -0.226000000    -2.693000000
H     4.705000000    -1.177000000    -1.713000000
O     1.932000000    -5.989000000    -2.615000000
H     2.244000000    -5.407000000    -1.922000000
H     1.164000000    -5.544000000    -2.973000000
O    -2.189000000    -1.192000000     3.496000000
H    -1.252000000    -1.078000000     3.656000000
H    -2.239000000    -1.914000000     2.870000000
O     4.281000000    -4.275000000     5.214000000
H     4.261000000    -4.410000000     6.162000000
H     3.709000000    -3.522000000     5.067000000
O     3.858000000    -3.789000000     2.356000000
H     3.141000000    -3.186000000     2.554000000
H     4.038000000    -4.227000000     3.188000000
O    -0.358000000    -4.358000000    -2.645000000
H    -1.003000000    -3.844000000    -2.157000000
H    -0.229000000    -3.870000000    -3.458000000
O     1.210000000     3.491000000    -6.129000000
H     1.223000000     4.417000000    -6.370000000
H     0.465000000     3.129000000    -6.610000000
O     6.672000000    -2.113000000     1.515000000
H     5.724000000    -2.222000000     1.436000000
H     6.826000000    -1.192000000     1.301000000
O     2.870000000    -5.140000000     0.168000000
H     2.881000000    -4.820000000     1.070000000
H     3.463000000    -5.892000000     0.173000000
O     4.051000000     2.366000000    -1.322000000
H     4.513000000     1.707000000    -1.840000000
H     3.155000000     2.349000000    -1.658000000
O     4.136000000     0.518000000     5.236000000
H     3.399000000     0.859000000     4.729000000
H     4.828000000     1.169000000     5.119000000
O    -2.562000000    -2.934000000    -1.586000000
H    -2.902000000    -2.079000000    -1.848000000
H    -3.319000000    -3.391000000    -1.219000000
