144
-2843.43628
O     1.272000000     2.818000000     2.454000000
H     0.663000000     3.007000000     3.168000000
H     0.709000000     2.623000000     1.705000000
O     4.214000000    -5.269000000    -3.721000000
H     3.463000000    -5.104000000    -3.151000000
H     3.844000000    -5.718000000    -4.481000000
O     3.167000000    -2.449000000    -4.296000000
H     3.237000000    -3.281000000    -3.829000000
H     3.852000000    -2.490000000    -4.963000000
O     7.396000000    -0.243000000    -2.958000000
H     7.332000000    -0.375000000    -3.904000000
H     6.790000000    -0.884000000    -2.585000000
O    -0.341000000     5.169000000    -1.950000000
H     0.215000000     4.896000000    -1.220000000
H     0.183000000     4.988000000    -2.730000000
O    -1.259000000     2.583000000    -3.786000000
H    -2.178000000     2.318000000    -3.790000000
H    -1.262000000     3.452000000    -3.385000000
O     2.120000000    -4.154000000    -2.324000000
H     1.412000000    -4.764000000    -2.114000000
H     2.273000000    -3.676000000    -1.510000000
O     0.523000000    -5.892000000     1.178000000
H    -0.300000000    -5.450000000     1.386000000
H     0.614000000    -5.795000000     0.230000000
O    -1.021000000     6.213000000     1.326000000
H    -1.139000000     6.644000000     0.480000000
H    -1.908000000     5.982000000     1.603000000
O     3.420000000     2.510000000     0.883000000
H     2.713000000     2.195000000     1.446000000
H     3.760000000     1.722000000     0.461000000
O    -1.011000000    -4.167000000     2.661000000
H    -0.245000000    -3.838000000     3.132000000
H    -1.746000000    -3.990000000     3.247000000
O    -3.575000000     4.978000000    -1.168000000
H    -2.794000000     4.742000000    -1.668000000
H    -3.363000000     5.827000000    -0.780000000
O    -0.517000000     3.193000000     4.608000000
H    -1.198000000     2.560000000     4.378000000
H    -0.139000000     2.852000000     5.419000000
O     2.755000000    -0.386000000     4.701000000
H     2.875000000    -1.231000000     4.268000000
H     1.964000000    -0.023000000     4.302000000
O     6.678000000    -4.241000000    -3.530000000
H     5.844000000    -4.578000000    -3.856000000
H     6.493000000    -3.332000000    -3.293000000
O     3.167000000    -2.720000000     2.593000000
H     4.077000000    -2.809000000     2.874000000
H     3.212000000    -2.702000000     1.637000000
O    -2.669000000     6.053000000     4.775000000
H    -3.033000000     5.427000000     4.149000000
H    -1.721000000     5.979000000     4.664000000
O     0.493000000    -1.913000000    -5.064000000
H     0.031000000    -1.351000000    -4.441000000
H     1.290000000    -2.177000000    -4.604000000
O     0.933000000    -2.884000000     4.223000000
H     1.735000000    -2.698000000     3.734000000
H     1.233000000    -3.069000000     5.113000000
O    -5.891000000     3.468000000     4.382000000
H    -5.742000000     2.938000000     3.599000000
H    -6.775000000     3.817000000     4.272000000
O    -4.979000000     2.843000000    -0.256000000
H    -5.611000000     3.492000000    -0.565000000
H    -4.141000000     3.135000000    -0.616000000
O    -1.061000000    -0.147000000    -3.322000000
H    -0.939000000     0.786000000    -3.498000000
H    -0.492000000    -0.326000000    -2.574000000
O    -4.560000000    -4.033000000     0.123000000
H    -4.700000000    -4.158000000     1.062000000
H    -4.696000000    -3.096000000    -0.016000000
O     3.543000000     0.039000000    -3.278000000
H     3.594000000    -0.203000000    -2.353000000
H     3.600000000    -0.794000000    -3.746000000
O     5.126000000     0.383000000     0.508000000
H     5.887000000     0.120000000     1.025000000
H     4.887000000    -0.402000000     0.016000000
O    -3.970000000     1.735000000    -2.849000000
H    -4.228000000     1.602000000    -1.937000000
H    -4.750000000     2.099000000    -3.268000000
O     0.047000000    -5.841000000    -1.678000000
H    -0.672000000    -5.223000000    -1.549000000
H    -0.337000000    -6.552000000    -2.192000000
O     5.532000000     2.286000000    -2.549000000
H     5.194000000     2.024000000    -3.405000000
H     6.106000000     1.565000000    -2.287000000
O     4.391000000     4.160000000    -0.859000000
H     4.109000000     3.488000000    -0.239000000
H     4.704000000     3.668000000    -1.619000000
O     1.187000000     4.753000000     0.369000000
H     0.663000000     5.422000000     0.809000000
H     1.890000000     4.555000000     0.987000000
O    -2.042000000    -3.991000000    -0.971000000
H    -2.609000000    -4.088000000    -0.206000000
H    -2.506000000    -3.375000000    -1.537000000
O    -5.002000000    -1.151000000     0.352000000
H    -5.882000000    -0.812000000     0.187000000
H    -4.512000000    -0.942000000    -0.443000000
O     1.437000000     4.813000000    -4.107000000
H     1.626000000     3.889000000    -4.273000000
H     2.295000000     5.238000000    -4.111000000
O    -2.668000000     0.566000000     3.744000000
H    -2.953000000     0.712000000     4.646000000
H    -3.313000000    -0.044000000     3.385000000
O     6.799000000    -6.204000000    -0.138000000
H     6.234000000    -5.515000000    -0.485000000
H     6.211000000    -6.947000000     0.004000000
O     5.882000000    -2.342000000    -1.238000000
H     5.642000000    -3.267000000    -1.290000000
H     5.044000000    -1.881000000    -1.188000000
O    -4.239000000    -1.291000000     3.073000000
H    -4.390000000    -1.501000000     2.151000000
H    -3.635000000    -1.967000000     3.377000000
O     4.663000000    -4.448000000    -0.546000000
H     3.934000000    -3.881000000    -0.293000000
H     4.264000000    -5.309000000    -0.673000000
O     7.365000000    -2.146000000     0.988000000
H     6.738000000    -2.572000000     1.572000000
H     6.956000000    -2.188000000     0.124000000
O    -2.930000000    -3.401000000     4.853000000
H    -3.187000000    -2.795000000     5.547000000
H    -3.333000000    -4.233000000     5.100000000
O     2.750000000    -5.627000000     2.593000000
H     2.153000000    -5.978000000     1.932000000
H     2.499000000    -4.707000000     2.677000000
O     3.457000000    -6.977000000    -0.097000000
H     3.261000000    -7.272000000     0.792000000
H     3.650000000    -7.781000000    -0.580000000
O     2.432000000     2.236000000    -4.633000000
H     2.612000000     1.519000000    -4.026000000
H     2.100000000     1.806000000    -5.421000000
O    -6.841000000     0.215000000    -1.306000000
H    -6.893000000     0.629000000    -2.167000000
H    -7.212000000    -0.658000000    -1.437000000
O    -3.703000000     5.363000000     2.069000000
H    -4.116000000     6.224000000     2.010000000
H    -4.264000000     4.791000000     1.545000000
O    -5.913000000     1.925000000     1.930000000
H    -5.925000000     2.370000000     1.083000000
H    -5.218000000     1.272000000     1.848000000
O    -3.464000000    -1.513000000    -2.103000000
H    -2.846000000    -1.124000000    -2.721000000
H    -4.275000000    -1.608000000    -2.603000000
O    -0.334000000    -0.205000000     4.451000000
H    -1.097000000     0.081000000     3.948000000
H    -0.148000000    -1.085000000     4.125000000
