144
-2856.59742
O    -0.283000000     7.080000000    -0.888000000
H    -0.406000000     6.194000000    -0.546000000
H     0.361000000     6.978000000    -1.589000000
O    -0.909000000    -3.966000000     4.257000000
H    -0.120000000    -3.554000000     4.610000000
H    -1.190000000    -3.382000000     3.553000000
O     2.059000000    -6.045000000    -0.610000000
H     2.005000000    -6.261000000    -1.541000000
H     2.106000000    -6.893000000    -0.170000000
O     3.876000000    -2.555000000     1.498000000
H     3.203000000    -3.230000000     1.584000000
H     4.516000000    -2.931000000     0.893000000
O    -0.216000000     4.510000000     3.576000000
H     0.081000000     5.075000000     2.863000000
H    -0.473000000     5.116000000     4.271000000
O     3.105000000    -1.176000000     5.966000000
H     3.174000000    -1.231000000     5.013000000
H     2.964000000    -0.246000000     6.143000000
O    -4.920000000     0.662000000     1.385000000
H    -4.399000000    -0.112000000     1.172000000
H    -4.881000000     0.722000000     2.339000000
O     0.330000000     2.117000000    -7.733000000
H    -0.503000000     2.329000000    -7.313000000
H     0.636000000     1.334000000    -7.276000000
O    -2.050000000    -2.778000000     2.142000000
H    -2.350000000    -1.899000000     1.911000000
H    -1.578000000    -3.082000000     1.366000000
O    -1.294000000    -3.401000000    -6.230000000
H    -0.522000000    -3.055000000    -5.781000000
H    -1.528000000    -2.721000000    -6.862000000
O     1.654000000     3.776000000    -0.350000000
H     2.456000000     4.034000000    -0.805000000
H     1.428000000     2.926000000    -0.727000000
O     2.065000000     5.572000000     1.716000000
H     1.947000000     5.036000000     0.932000000
H     2.719000000     6.224000000     1.464000000
O    -4.766000000    -3.369000000     3.064000000
H    -4.912000000    -3.702000000     3.949000000
H    -3.874000000    -3.023000000     3.082000000
O     4.303000000     1.438000000     5.176000000
H     3.682000000     2.040000000     4.764000000
H     4.519000000     0.809000000     4.488000000
O    -0.548000000    -1.749000000     6.803000000
H    -0.076000000    -2.565000000     6.637000000
H     0.045000000    -1.062000000     6.496000000
O    -4.895000000    -0.072000000     4.083000000
H    -4.178000000    -0.599000000     4.437000000
H    -5.635000000    -0.677000000     4.033000000
O    -2.227000000    -0.816000000    -6.787000000
H    -2.498000000    -0.506000000    -7.651000000
H    -2.005000000    -0.020000000    -6.304000000
O    -3.757000000     3.931000000    -4.688000000
H    -3.238000000     4.577000000    -4.209000000
H    -4.195000000     3.422000000    -4.006000000
O     4.380000000    -2.587000000    -2.789000000
H     4.428000000    -1.969000000    -3.519000000
H     4.201000000    -3.432000000    -3.201000000
O    -3.079000000    -1.995000000    -4.170000000
H    -2.469000000    -1.273000000    -4.322000000
H    -3.081000000    -2.484000000    -4.993000000
O     2.568000000     3.837000000     4.268000000
H     1.667000000     3.630000000     4.021000000
H     2.930000000     4.282000000     3.501000000
O     0.860000000     0.034000000    -6.228000000
H     1.105000000    -0.876000000    -6.397000000
H     0.405000000     0.006000000    -5.386000000
O    -1.479000000     1.955000000     4.033000000
H    -0.937000000     2.677000000     3.715000000
H    -2.016000000     1.709000000     3.280000000
O    -3.431000000    -1.395000000    -0.119000000
H    -2.768000000    -2.071000000    -0.258000000
H    -3.938000000    -1.387000000    -0.931000000
O    -0.716000000    -4.024000000     0.265000000
H    -1.024000000    -4.896000000     0.017000000
H    -0.893000000    -3.480000000    -0.502000000
O    -4.586000000     4.952000000     1.185000000
H    -4.161000000     5.524000000     1.825000000
H    -4.065000000     5.056000000     0.388000000
O    -1.848000000     5.583000000    -3.640000000
H    -1.070000000     5.036000000    -3.527000000
H    -1.537000000     6.344000000    -4.131000000
O     0.866000000    -2.402000000    -4.606000000
H     0.931000000    -2.953000000    -3.826000000
H     0.380000000    -1.630000000    -4.314000000
O    -1.433000000     2.364000000     7.126000000
H    -2.307000000     2.154000000     7.455000000
H    -1.564000000     2.534000000     6.193000000
O    -5.340000000    -1.283000000    -2.708000000
H    -5.818000000    -0.824000000    -3.399000000
H    -4.546000000    -1.601000000    -3.136000000
O     0.645000000     0.633000000     5.976000000
H    -0.073000000     0.651000000     5.344000000
H     0.388000000     1.263000000     6.649000000
O     4.459000000    -1.105000000    -5.010000000
H     5.084000000    -1.198000000    -5.729000000
H     3.654000000    -0.802000000    -5.430000000
O    -1.038000000     4.456000000     0.431000000
H    -0.248000000     3.915000000     0.411000000
H    -1.669000000     3.939000000     0.932000000
O     1.849000000    -4.553000000     1.678000000
H     2.058000000    -5.149000000     0.959000000
H     0.931000000    -4.322000000     1.539000000
O    -3.113000000     2.704000000     1.341000000
H    -3.910000000     3.145000000     1.635000000
H    -3.407000000     1.834000000     1.072000000
O     1.442000000    -4.188000000    -2.692000000
H     1.191000000    -4.558000000    -1.845000000
H     2.357000000    -4.445000000    -2.803000000
O    -3.038000000    -1.512000000     5.563000000
H    -2.195000000    -1.965000000     5.583000000
H    -3.070000000    -1.030000000     6.389000000
O    -2.910000000     5.655000000    -1.136000000
H    -2.178000000     5.197000000    -0.723000000
H    -2.635000000     5.774000000    -2.045000000
O    -1.783000000     1.993000000    -5.680000000
H    -1.424000000     1.837000000    -4.807000000
H    -2.370000000     2.741000000    -5.568000000
O    -3.884000000     1.256000000    -2.555000000
H    -3.879000000     0.311000000    -2.710000000
H    -3.018000000     1.550000000    -2.837000000
O     1.358000000    -3.129000000     5.518000000
H     2.036000000    -2.609000000     5.949000000
H     1.843000000    -3.773000000     5.001000000
O     3.754000000    -0.393000000    -1.445000000
H     3.758000000    -1.234000000    -1.903000000
H     3.379000000    -0.589000000    -0.587000000
O     0.390000000     4.061000000    -3.413000000
H     1.309000000     3.797000000    -3.458000000
H    -0.099000000     3.252000000    -3.564000000
O     2.809000000    -4.953000000     4.191000000
H     3.755000000    -4.899000000     4.059000000
H     2.437000000    -4.792000000     3.324000000
O     2.751000000     2.260000000    -2.360000000
H     3.493000000     2.467000000    -2.928000000
H     3.004000000     1.448000000    -1.922000000
O    -1.946000000    -3.425000000    -2.067000000
H    -1.929000000    -2.865000000    -2.844000000
H    -2.655000000    -4.046000000    -2.235000000
O     4.563000000    -0.171000000     2.444000000
H     4.071000000    -0.980000000     2.304000000
H     5.459000000    -0.461000000     2.615000000
O     1.426000000     6.564000000    -3.214000000
H     0.791000000     5.857000000    -3.106000000
H     2.195000000     6.140000000    -3.594000000
