144
-2825.40054
O     3.154000000     0.429000000     3.858000000
H     2.607000000     1.165000000     4.134000000
H     2.568000000    -0.327000000     3.882000000
O    -2.384000000    -3.118000000     0.873000000
H    -1.631000000    -3.204000000     0.287000000
H    -2.973000000    -3.826000000     0.611000000
O    -5.813000000     1.252000000     1.509000000
H    -5.760000000     2.177000000     1.750000000
H    -5.956000000     0.797000000     2.339000000
O     2.205000000    -5.312000000    -0.257000000
H     2.542000000    -6.191000000    -0.429000000
H     2.776000000    -4.733000000    -0.761000000
O    -2.664000000     1.914000000    -5.566000000
H    -3.068000000     1.875000000    -4.699000000
H    -1.769000000     1.604000000    -5.426000000
O     1.336000000     4.822000000     6.652000000
H     1.426000000     4.581000000     5.730000000
H     1.228000000     3.988000000     7.109000000
O    -1.856000000     4.043000000    -0.017000000
H    -1.620000000     3.532000000    -0.792000000
H    -1.019000000     4.355000000     0.327000000
O     2.339000000     2.377000000    -2.707000000
H     1.933000000     3.160000000    -2.337000000
H     2.590000000     2.634000000    -3.594000000
O    -0.300000000    -5.952000000    -4.225000000
H    -0.260000000    -6.133000000    -3.286000000
H     0.203000000    -6.660000000    -4.627000000
O     0.500000000     4.418000000    -1.954000000
H     0.909000000     5.034000000    -2.562000000
H     0.300000000     4.945000000    -1.179000000
O     4.585000000     3.558000000     1.735000000
H     4.786000000     4.434000000     1.405000000
H     4.060000000     3.156000000     1.043000000
O    -4.449000000     4.262000000    -0.569000000
H    -4.659000000     3.382000000    -0.882000000
H    -3.514000000     4.226000000    -0.365000000
O    -1.364000000    -1.893000000     2.842000000
H    -1.680000000    -2.034000000     1.949000000
H    -1.155000000    -2.770000000     3.163000000
O     5.070000000    -1.317000000    -0.285000000
H     4.744000000    -0.747000000     0.411000000
H     5.909000000    -1.640000000     0.042000000
O    -5.525000000     1.481000000    -1.141000000
H    -5.043000000     1.025000000    -1.830000000
H    -5.499000000     0.882000000    -0.394000000
O     1.846000000     1.376000000    -6.720000000
H     2.005000000     0.558000000    -6.249000000
H     2.101000000     2.061000000    -6.102000000
O    -1.640000000    -3.933000000    -6.079000000
H    -1.162000000    -4.513000000    -5.486000000
H    -1.461000000    -4.282000000    -6.952000000
O     3.660000000    -3.418000000    -1.780000000
H     2.895000000    -3.046000000    -2.219000000
H     4.118000000    -2.662000000    -1.413000000
O    -3.008000000     5.676000000    -3.038000000
H    -3.075000000     4.911000000    -2.467000000
H    -3.587000000     5.477000000    -3.774000000
O    -2.036000000     2.880000000    -2.549000000
H    -2.089000000     1.929000000    -2.649000000
H    -1.222000000     3.122000000    -2.991000000
O    -0.638000000     0.936000000    -7.811000000
H    -0.835000000     0.099000000    -7.392000000
H     0.097000000     1.289000000    -7.310000000
O     3.834000000     2.746000000     6.647000000
H     3.472000000     2.825000000     5.765000000
H     3.072000000     2.593000000     7.206000000
O    -0.466000000     2.681000000     5.905000000
H    -0.623000000     3.000000000     5.016000000
H    -0.492000000     1.728000000     5.825000000
O     4.264000000    -3.081000000     2.632000000
H     3.374000000    -3.053000000     2.982000000
H     4.446000000    -2.180000000     2.365000000
O     2.228000000    -0.805000000    -5.129000000
H     2.810000000    -1.029000000    -4.403000000
H     1.536000000    -1.465000000    -5.095000000
O    -1.627000000     6.449000000     3.905000000
H    -2.010000000     7.210000000     3.467000000
H    -1.971000000     5.697000000     3.422000000
O    -4.051000000    -0.202000000    -3.326000000
H    -3.368000000    -0.815000000    -3.596000000
H    -4.868000000    -0.609000000    -3.615000000
O     1.136000000    -3.783000000    -4.942000000
H     0.783000000    -4.646000000    -4.723000000
H     1.115000000    -3.299000000    -4.116000000
O    -3.214000000     4.885000000     2.457000000
H    -2.982000000     4.474000000     1.625000000
H    -3.940000000     4.358000000     2.791000000
O     4.728000000    -2.930000000    -5.599000000
H     3.793000000    -3.126000000    -5.661000000
H     5.160000000    -3.699000000    -5.971000000
O     3.279000000    -5.707000000    -3.481000000
H     4.096000000    -6.117000000    -3.195000000
H     3.299000000    -4.835000000    -3.088000000
O    -0.621000000    -1.345000000    -6.199000000
H    -1.240000000    -2.059000000    -6.350000000
H    -0.485000000    -1.343000000    -5.252000000
O     1.523000000    -1.596000000     3.895000000
H     1.002000000    -1.586000000     3.092000000
H     1.584000000    -2.522000000     4.129000000
O     2.617000000     3.162000000     4.293000000
H     3.423000000     3.229000000     3.780000000
H     1.960000000     3.616000000     3.766000000
O    -0.473000000    -0.029000000     5.662000000
H    -1.229000000    -0.348000000     5.169000000
H     0.239000000    -0.620000000     5.419000000
O     5.146000000     0.060000000     2.178000000
H     4.426000000     0.321000000     2.752000000
H     5.842000000     0.691000000     2.363000000
O    -4.441000000    -3.972000000    -2.123000000
H    -3.894000000    -3.619000000    -2.825000000
H    -5.218000000    -3.413000000    -2.119000000
O     0.915000000     5.170000000     3.733000000
H     1.634000000     5.802000000     3.760000000
H     0.123000000     5.708000000     3.723000000
O     0.014000000    -4.001000000    -0.330000000
H     0.335000000    -3.923000000    -1.228000000
H     0.596000000    -4.642000000     0.078000000
O     0.596000000     5.597000000     0.562000000
H     1.207000000     5.358000000     1.259000000
H     0.734000000     6.536000000     0.434000000
O     2.670000000    -4.674000000    -7.036000000
H     2.389000000    -4.619000000    -6.123000000
H     3.615000000    -4.822000000    -6.987000000
O    -0.196000000     1.328000000    -3.872000000
H     0.733000000     1.412000000    -3.658000000
H    -0.353000000     0.384000000    -3.893000000
O    -4.720000000    -1.555000000     0.416000000
H    -3.892000000    -2.029000000     0.491000000
H    -5.185000000    -1.996000000    -0.295000000
O     2.632000000     2.671000000     0.208000000
H     1.844000000     3.105000000    -0.119000000
H     2.403000000     1.742000000     0.225000000
O     3.607000000    -0.459000000    -2.454000000
H     4.132000000    -0.620000000    -1.670000000
H     3.328000000     0.453000000    -2.373000000
O    -3.293000000    -1.057000000     4.254000000
H    -4.023000000    -1.568000000     3.905000000
H    -2.560000000    -1.258000000     3.672000000
O    -3.685000000    -0.766000000     6.848000000
H    -4.525000000    -0.476000000     7.204000000
H    -3.735000000    -0.556000000     5.916000000
O    -2.649000000    -2.621000000    -3.878000000
H    -1.816000000    -2.149000000    -3.891000000
H    -2.573000000    -3.260000000    -4.587000000
