144
-2822.38835
O     2.552000000     2.557000000     5.396000000
H     2.262000000     3.145000000     6.093000000
H     1.744000000     2.179000000     5.050000000
O    -3.667000000    -3.224000000    -1.079000000
H    -3.195000000    -4.037000000    -0.895000000
H    -3.697000000    -3.176000000    -2.034000000
O    -0.917000000    -6.729000000    -1.769000000
H    -1.694000000    -7.202000000    -2.066000000
H    -0.776000000    -7.039000000    -0.874000000
O    -3.836000000     0.934000000    -5.898000000
H    -3.984000000    -0.009000000    -5.835000000
H    -2.897000000     1.040000000    -5.745000000
O     1.797000000     1.821000000    -1.764000000
H     2.531000000     2.226000000    -1.301000000
H     1.364000000     1.283000000    -1.102000000
O     1.960000000     5.248000000    -1.627000000
H     2.528000000     4.498000000    -1.804000000
H     2.261000000     5.581000000    -0.781000000
O    -2.855000000    -6.091000000    -5.280000000
H    -2.600000000    -6.957000000    -5.598000000
H    -2.108000000    -5.799000000    -4.757000000
O    -4.932000000     1.874000000     3.597000000
H    -4.707000000     2.393000000     2.825000000
H    -5.675000000     1.340000000     3.318000000
O     2.881000000     0.887000000    -4.065000000
H     3.482000000     1.602000000    -3.859000000
H     2.281000000     0.856000000    -3.320000000
O     3.819000000     2.777000000    -0.288000000
H     4.081000000     2.071000000     0.304000000
H     4.597000000     3.331000000    -0.359000000
O    -3.335000000     3.464000000    -1.397000000
H    -2.417000000     3.245000000    -1.554000000
H    -3.819000000     2.940000000    -2.035000000
O    -4.212000000    -2.162000000     1.369000000
H    -4.828000000    -1.430000000     1.337000000
H    -4.074000000    -2.399000000     0.451000000
O     5.354000000    -1.659000000     0.314000000
H     4.433000000    -1.905000000     0.399000000
H     5.794000000    -2.467000000     0.049000000
O    -5.368000000     2.250000000    -3.499000000
H    -5.399000000     1.294000000    -3.471000000
H    -5.763000000     2.477000000    -4.341000000
O     2.520000000    -4.498000000    -3.091000000
H     1.852000000    -3.892000000    -2.770000000
H     2.045000000    -5.093000000    -3.672000000
O     1.413000000    -5.875000000    -5.567000000
H     0.628000000    -5.503000000    -5.164000000
H     1.888000000    -5.117000000    -5.908000000
O     0.752000000    -4.708000000    -0.174000000
H     0.437000000    -4.090000000    -0.833000000
H     1.611000000    -4.370000000     0.079000000
O    -0.693000000     3.240000000    -2.141000000
H    -0.629000000     3.425000000    -3.078000000
H     0.020000000     2.625000000    -1.969000000
O     4.793000000     4.454000000     5.248000000
H     4.058000000     3.879000000     5.032000000
H     5.568000000     3.905000000     5.130000000
O    -2.445000000     4.405000000     5.424000000
H    -2.752000000     5.300000000     5.571000000
H    -2.543000000     4.270000000     4.482000000
O     3.116000000    -3.478000000     0.898000000
H     3.441000000    -4.314000000     1.234000000
H     2.902000000    -2.972000000     1.682000000
O     5.210000000    -3.759000000    -2.950000000
H     4.332000000    -4.134000000    -3.018000000
H     5.550000000    -3.783000000    -3.844000000
O    -0.668000000     5.956000000    -1.531000000
H    -1.015000000     5.064000000    -1.548000000
H     0.280000000     5.846000000    -1.609000000
O    -5.410000000    -1.953000000    -5.773000000
H    -4.716000000    -2.215000000    -5.168000000
H    -5.052000000    -2.133000000    -6.642000000
O     0.602000000    -2.687000000    -5.328000000
H     0.142000000    -2.575000000    -4.496000000
H     1.522000000    -2.785000000    -5.082000000
O    -2.154000000     4.330000000     2.647000000
H    -2.376000000     5.073000000     2.085000000
H    -1.202000000     4.375000000     2.739000000
O    -2.899000000     0.479000000     4.526000000
H    -2.608000000     0.973000000     5.292000000
H    -3.588000000     1.019000000     4.140000000
O     3.297000000    -7.188000000    -2.208000000
H     3.781000000    -7.262000000    -1.385000000
H     2.893000000    -6.321000000    -2.171000000
O    -0.436000000    -2.728000000    -7.925000000
H     0.127000000    -2.875000000    -7.165000000
H    -1.103000000    -3.411000000    -7.864000000
O    -0.322000000    -1.413000000     3.227000000
H    -1.004000000    -2.085000000     3.253000000
H    -0.654000000    -0.759000000     2.612000000
O     2.291000000     5.598000000     4.554000000
H     3.167000000     5.212000000     4.554000000
H     2.147000000     5.866000000     5.462000000
O     0.400000000     0.664000000     5.385000000
H     0.072000000     0.171000000     4.633000000
H    -0.367000000     1.128000000     5.720000000
O     0.631000000    -0.923000000     7.345000000
H     1.339000000    -1.402000000     6.914000000
H     0.506000000    -0.143000000     6.804000000
O     2.380000000    -2.202000000     3.140000000
H     1.551000000    -1.810000000     2.868000000
H     2.545000000    -1.833000000     4.008000000
O     0.595000000     5.694000000     2.384000000
H     1.194000000     5.544000000     3.116000000
H     0.076000000     6.452000000     2.651000000
O    -0.803000000    -4.989000000    -3.816000000
H    -0.443000000    -4.200000000    -3.411000000
H    -0.622000000    -5.686000000    -3.186000000
O    -4.246000000     3.238000000     1.337000000
H    -3.849000000     3.218000000     0.467000000
H    -3.647000000     3.768000000     1.862000000
O    -1.671000000     2.098000000     6.518000000
H    -2.031000000     2.911000000     6.164000000
H    -1.582000000     2.265000000     7.457000000
O     3.200000000     5.217000000     1.009000000
H     3.453000000     4.306000000     0.861000000
H     2.338000000     5.162000000     1.423000000
O    -2.422000000    -3.566000000     2.797000000
H    -2.172000000    -4.123000000     2.060000000
H    -3.167000000    -3.059000000     2.473000000
O    -1.022000000     0.665000000    -5.275000000
H    -0.098000000     0.764000000    -5.503000000
H    -1.065000000    -0.168000000    -4.805000000
O    -5.356000000    -0.744000000    -2.776000000
H    -5.686000000    -1.002000000    -1.916000000
H    -4.461000000    -1.081000000    -2.801000000
O    -4.289000000     5.931000000    -0.735000000
H    -3.793000000     5.275000000    -1.224000000
H    -4.517000000     6.594000000    -1.386000000
O     5.633000000    -0.087000000    -2.174000000
H     5.091000000    -0.833000000    -1.920000000
H     6.483000000    -0.259000000    -1.768000000
O     5.041000000     0.960000000     1.348000000
H     5.796000000     1.128000000     1.912000000
H     5.215000000     0.101000000     0.964000000
O    -1.909000000    -4.956000000     0.608000000
H    -1.003000000    -4.746000000     0.381000000
H    -1.972000000    -5.904000000     0.492000000
O    -3.638000000    -3.160000000    -3.691000000
H    -2.835000000    -2.652000000    -3.573000000
H    -3.376000000    -3.897000000    -4.244000000
O     2.151000000    -4.851000000     4.729000000
H     2.982000000    -5.051000000     4.298000000
H     1.810000000    -4.094000000     4.253000000
