144
-2818.20114
O     4.349000000     5.452000000    -2.650000000
H     3.802000000     5.331000000    -1.874000000
H     3.949000000     6.188000000    -3.113000000
O     0.558000000     2.029000000     3.246000000
H     1.094000000     2.742000000     2.899000000
H     1.117000000     1.606000000     3.899000000
O    -3.467000000    -3.126000000    -5.891000000
H    -3.829000000    -2.334000000    -6.289000000
H    -3.592000000    -3.001000000    -4.950000000
O    -5.410000000    -3.095000000     0.196000000
H    -4.685000000    -2.741000000    -0.319000000
H    -5.207000000    -4.026000000     0.287000000
O     0.653000000    -0.062000000    -2.777000000
H     0.088000000    -0.084000000    -2.005000000
H     0.201000000    -0.607000000    -3.421000000
O    -0.824000000    -1.916000000    -4.273000000
H    -1.666000000    -1.941000000    -3.818000000
H    -0.668000000    -2.823000000    -4.538000000
O    -5.062000000    -4.720000000    -3.041000000
H    -4.782000000    -5.537000000    -3.453000000
H    -4.250000000    -4.316000000    -2.735000000
O    -7.034000000    -1.823000000     2.477000000
H    -7.987000000    -1.839000000     2.386000000
H    -6.715000000    -2.356000000     1.749000000
O     4.698000000    -1.782000000    -0.109000000
H     4.520000000    -1.392000000    -0.965000000
H     5.086000000    -1.071000000     0.402000000
O    -1.848000000     2.902000000    -3.156000000
H    -0.961000000     3.196000000    -3.364000000
H    -1.989000000     3.186000000    -2.253000000
O    -0.003000000    -5.212000000    -1.740000000
H     0.172000000    -5.051000000    -0.813000000
H     0.819000000    -4.998000000    -2.180000000
O    -5.400000000    -5.580000000     0.915000000
H    -6.165000000    -5.705000000     1.476000000
H    -4.672000000    -5.942000000     1.419000000
O    -2.735000000     2.543000000     4.682000000
H    -2.513000000     1.938000000     3.975000000
H    -2.144000000     2.305000000     5.396000000
O    -6.974000000     0.684000000    -3.194000000
H    -6.698000000     0.465000000    -2.304000000
H    -6.156000000     0.772000000    -3.683000000
O     2.828000000    -2.115000000    -3.125000000
H     2.327000000    -1.471000000    -2.624000000
H     2.989000000    -1.691000000    -3.967000000
O     1.374000000     4.626000000     2.589000000
H     0.661000000     4.868000000     3.179000000
H     1.985000000     5.361000000     2.636000000
O     3.918000000     2.108000000     3.949000000
H     3.987000000     1.557000000     3.169000000
H     4.581000000     1.762000000     4.546000000
O    -4.959000000    -0.828000000    -6.368000000
H    -5.457000000    -0.033000000    -6.558000000
H    -5.098000000    -0.980000000    -5.434000000
O    -0.515000000     5.894000000    -0.979000000
H    -1.405000000     5.546000000    -0.923000000
H    -0.184000000     5.573000000    -1.818000000
O     3.225000000    -1.092000000     5.062000000
H     3.807000000    -0.895000000     4.328000000
H     3.518000000    -1.948000000     5.376000000
O     2.237000000     1.663000000    -4.447000000
H     1.937000000     2.571000000    -4.431000000
H     1.647000000     1.205000000    -3.849000000
O    -8.255000000    -2.254000000    -0.051000000
H    -7.306000000    -2.349000000     0.024000000
H    -8.412000000    -2.141000000    -0.989000000
O     5.638000000    -0.824000000     3.638000000
H     6.184000000    -1.604000000     3.538000000
H     5.747000000    -0.571000000     4.555000000
O    -3.979000000     1.139000000    -3.522000000
H    -3.768000000     0.518000000    -2.825000000
H    -3.438000000     1.906000000    -3.331000000
O     2.394000000     4.847000000    -0.822000000
H     2.142000000     5.754000000    -0.651000000
H     2.327000000     4.414000000     0.029000000
O    -2.550000000    -4.135000000    -2.387000000
H    -2.802000000    -3.673000000    -1.587000000
H    -1.623000000    -4.339000000    -2.264000000
O     0.199000000    -4.712000000     3.407000000
H     0.190000000    -5.468000000     3.994000000
H     0.208000000    -3.954000000     3.991000000
O     3.352000000    -2.847000000     2.697000000
H     2.591000000    -2.789000000     3.275000000
H     4.057000000    -3.167000000     3.261000000
O     5.229000000     2.328000000    -0.354000000
H     5.242000000     1.876000000    -1.198000000
H     5.367000000     1.635000000     0.291000000
O     2.878000000    -4.281000000     0.254000000
H     2.844000000    -3.712000000     1.023000000
H     3.383000000    -3.783000000    -0.390000000
O    -6.148000000     0.273000000    -0.621000000
H    -6.390000000    -0.428000000    -0.016000000
H    -5.200000000     0.360000000    -0.521000000
O     0.673000000    -2.122000000     4.070000000
H     0.439000000    -1.260000000     3.723000000
H     1.449000000    -1.962000000     4.606000000
O     5.413000000     4.607000000     1.524000000
H     5.638000000     5.133000000     0.757000000
H     5.201000000     3.744000000     1.170000000
O    -4.930000000    -4.153000000     4.037000000
H    -4.253000000    -3.973000000     3.384000000
H    -5.560000000    -4.711000000     3.581000000
O    -0.444000000     6.927000000     1.669000000
H     0.452000000     6.608000000     1.556000000
H    -0.892000000     6.675000000     0.862000000
O    -1.571000000     3.794000000     2.315000000
H    -0.769000000     3.289000000     2.451000000
H    -2.129000000     3.562000000     3.057000000
O     4.427000000     4.965000000     4.021000000
H     4.240000000     4.026000000     4.032000000
H     4.704000000     5.143000000     3.122000000
O     6.000000000     0.119000000     1.203000000
H     6.931000000     0.131000000     0.980000000
H     5.973000000    -0.202000000     2.104000000
O    -2.589000000     3.813000000    -0.739000000
H    -3.501000000     4.017000000    -0.530000000
H    -2.163000000     3.722000000     0.113000000
O     0.450000000    -5.009000000     0.824000000
H     0.185000000    -4.765000000     1.711000000
H     1.391000000    -4.834000000     0.800000000
O    -4.530000000    -1.852000000    -3.623000000
H    -4.782000000    -2.728000000    -3.331000000
H    -4.228000000    -1.412000000    -2.828000000
O    -2.388000000    -3.631000000     2.484000000
H    -2.668000000    -3.550000000     1.572000000
H    -1.450000000    -3.810000000     2.432000000
O    -1.940000000    -6.802000000    -0.592000000
H    -1.163000000    -6.302000000    -0.841000000
H    -2.084000000    -7.402000000    -1.323000000
O     0.631000000     4.540000000    -2.961000000
H     1.370000000     4.476000000    -2.356000000
H     1.027000000     4.484000000    -3.830000000
O    -1.798000000     0.441000000     2.882000000
H    -2.072000000     0.446000000     1.965000000
H    -0.935000000     0.854000000     2.877000000
O     5.555000000     0.666000000    -2.510000000
H     6.441000000     0.323000000    -2.631000000
H     5.135000000     0.549000000    -3.362000000
O    -5.303000000     3.819000000     0.837000000
H    -5.571000000     3.038000000     1.323000000
H    -4.980000000     4.420000000     1.508000000
O    -3.020000000    -1.568000000     4.542000000
H    -2.450000000    -0.899000000     4.161000000
H    -2.931000000    -2.320000000     3.958000000
