144
-2849.64603
O    -3.888000000     1.037000000     3.592000000
H    -2.984000000     1.045000000     3.906000000
H    -4.410000000     1.281000000     4.357000000
O    -0.416000000    -1.570000000     3.455000000
H     0.473000000    -1.845000000     3.231000000
H    -0.788000000    -1.264000000     2.628000000
O    -3.845000000    -5.243000000    -2.276000000
H    -4.141000000    -5.957000000    -2.841000000
H    -3.994000000    -4.451000000    -2.792000000
O    -0.970000000    -1.599000000    -7.032000000
H    -1.808000000    -1.244000000    -7.327000000
H    -0.711000000    -1.032000000    -6.306000000
O    -3.211000000    -2.527000000     1.163000000
H    -3.318000000    -2.166000000     0.283000000
H    -2.817000000    -3.388000000     1.023000000
O    -0.367000000    -4.145000000    -6.316000000
H    -1.167000000    -4.149000000    -5.791000000
H    -0.475000000    -3.401000000    -6.909000000
O     1.322000000     0.888000000     6.003000000
H     0.869000000     1.646000000     5.634000000
H     2.228000000     0.984000000     5.708000000
O     1.181000000     3.406000000     4.926000000
H     0.577000000     3.763000000     4.275000000
H     2.049000000     3.526000000     4.539000000
O    -0.769000000    -0.013000000    -4.884000000
H     0.115000000     0.066000000    -4.527000000
H    -1.271000000    -0.440000000    -4.190000000
O     1.264000000    -4.805000000    -3.702000000
H     2.097000000    -5.154000000    -4.020000000
H     0.664000000    -4.906000000    -4.442000000
O     1.324000000     1.179000000    -3.398000000
H     1.463000000     1.455000000    -2.492000000
H     2.164000000     0.807000000    -3.667000000
O    -1.495000000     3.408000000     6.791000000
H    -1.308000000     2.888000000     6.009000000
H    -1.497000000     4.314000000     6.481000000
O     4.891000000    -3.179000000     4.505000000
H     3.976000000    -3.224000000     4.229000000
H     5.371000000    -3.642000000     3.819000000
O     6.586000000     2.939000000    -0.911000000
H     7.216000000     2.595000000    -1.544000000
H     6.328000000     3.789000000    -1.268000000
O    -2.475000000    -3.611000000     4.060000000
H    -2.051000000    -2.797000000     3.786000000
H    -1.974000000    -4.300000000     3.625000000
O    -6.289000000    -3.945000000    -3.358000000
H    -7.239000000    -3.921000000    -3.240000000
H    -6.006000000    -3.042000000    -3.212000000
O    -2.840000000    -3.582000000    -4.735000000
H    -2.368000000    -3.028000000    -4.112000000
H    -3.520000000    -3.011000000    -5.094000000
O     2.566000000     4.592000000     1.400000000
H     2.715000000     5.148000000     0.635000000
H     1.821000000     4.043000000     1.156000000
O    -7.726000000     0.021000000    -0.809000000
H    -6.974000000    -0.464000000    -1.148000000
H    -7.605000000     0.015000000     0.141000000
O    -2.261000000     3.845000000    -0.228000000
H    -2.355000000     4.773000000    -0.011000000
H    -2.808000000     3.392000000     0.414000000
O     3.724000000     0.763000000     4.576000000
H     3.842000000     1.491000000     3.967000000
H     4.440000000     0.857000000     5.204000000
O     5.302000000    -0.476000000     1.181000000
H     6.066000000    -0.941000000     1.522000000
H     5.403000000     0.419000000     1.503000000
O     4.212000000    -4.070000000     1.118000000
H     3.500000000    -3.471000000     1.343000000
H     3.778000000    -4.807000000     0.689000000
O    -1.517000000     1.419000000     4.893000000
H    -0.847000000     0.798000000     4.608000000
H    -1.721000000     1.155000000     5.790000000
O     7.235000000     1.735000000     1.521000000
H     6.840000000     2.201000000     0.784000000
H     8.175000000     1.758000000     1.344000000
O     4.560000000     0.749000000    -1.140000000
H     5.299000000     1.338000000    -0.983000000
H     4.762000000    -0.031000000    -0.624000000
O     1.453000000    -4.800000000     2.204000000
H     1.287000000    -4.507000000     3.100000000
H     1.471000000    -3.994000000     1.688000000
O    -2.118000000    -5.157000000     0.095000000
H    -2.807000000    -5.674000000    -0.322000000
H    -1.628000000    -4.779000000    -0.634000000
O     5.003000000    -1.664000000    -4.071000000
H     4.565000000    -2.222000000    -4.714000000
H     4.736000000    -2.021000000    -3.223000000
O     1.134000000    -2.697000000     0.628000000
H     1.735000000    -2.120000000     0.157000000
H     0.450000000    -2.903000000    -0.009000000
O    -5.121000000     0.234000000     0.287000000
H    -5.320000000    -0.340000000     1.027000000
H    -4.530000000    -0.281000000    -0.263000000
O     3.863000000     0.899000000    -3.842000000
H     4.014000000     0.908000000    -2.897000000
H     4.291000000     0.098000000    -4.145000000
O     1.721000000     5.552000000    -1.062000000
H     2.283000000     5.326000000    -1.803000000
H     1.178000000     4.775000000    -0.928000000
O    -3.381000000     3.165000000    -2.734000000
H    -3.006000000     3.369000000    -1.877000000
H    -4.316000000     3.053000000    -2.566000000
O    -4.150000000     2.833000000     1.676000000
H    -4.153000000     2.166000000     2.361000000
H    -4.241000000     3.661000000     2.147000000
O     2.180000000    -1.392000000     4.073000000
H     2.704000000    -0.590000000     4.057000000
H     1.632000000    -1.304000000     4.852000000
O    -4.912000000    -1.811000000    -5.128000000
H    -5.266000000    -2.384000000    -5.808000000
H    -5.219000000    -0.937000000    -5.367000000
O     3.612000000     3.762000000     3.657000000
H     4.016000000     4.571000000     3.973000000
H     3.354000000     3.959000000     2.756000000
O     5.268000000    -2.591000000    -1.170000000
H     5.561000000    -1.991000000    -0.484000000
H     4.687000000    -3.204000000    -0.719000000
O     0.353000000     3.375000000    -0.678000000
H     0.447000000     2.437000000    -0.844000000
H    -0.581000000     3.495000000    -0.503000000
O    -6.103000000    -4.657000000    -0.691000000
H    -5.621000000    -3.963000000    -0.241000000
H    -5.660000000    -4.748000000    -1.535000000
O    -0.336000000    -3.874000000    -1.544000000
H     0.442000000    -4.117000000    -2.047000000
H    -0.678000000    -3.100000000    -1.992000000
O    -0.677000000     4.147000000     2.934000000
H    -1.000000000     4.065000000     2.037000000
H    -1.176000000     4.876000000     3.303000000
O    -5.708000000    -1.291000000    -2.452000000
H    -5.396000000    -1.115000000    -3.340000000
H    -4.920000000    -1.533000000    -1.966000000
O     1.792000000    -0.244000000    -7.281000000
H     1.301000000    -1.033000000    -7.052000000
H     2.431000000    -0.539000000    -7.930000000
O     0.151000000     2.788000000    -5.722000000
H     0.352000000     2.812000000    -6.657000000
H     0.365000000     1.895000000    -5.453000000
O    -4.962000000    -1.368000000     3.071000000
H    -4.231000000    -1.840000000     2.673000000
H    -4.570000000    -0.567000000     3.419000000
O    -5.407000000     2.935000000    -0.675000000
H    -5.392000000     2.031000000    -0.989000000
H    -5.236000000     2.866000000     0.265000000
