144
-2827.76592
O    -2.907000000     1.236000000     4.529000000
H    -2.579000000     0.339000000     4.473000000
H    -3.655000000     1.182000000     5.123000000
O     0.455000000    -2.979000000     3.648000000
H     0.419000000    -3.664000000     4.315000000
H     0.697000000    -2.188000000     4.130000000
O    -2.195000000    -5.465000000    -2.531000000
H    -3.029000000    -5.863000000    -2.282000000
H    -2.438000000    -4.738000000    -3.104000000
O    -3.692000000    -3.277000000    -6.982000000
H    -4.486000000    -3.103000000    -7.486000000
H    -3.237000000    -2.436000000    -6.952000000
O    -3.867000000    -3.019000000     0.420000000
H    -3.526000000    -2.557000000    -0.346000000
H    -3.184000000    -3.652000000     0.642000000
O     3.530000000    -2.001000000     6.300000000
H     4.011000000    -2.579000000     5.708000000
H     4.149000000    -1.300000000     6.506000000
O     1.658000000     1.805000000     5.680000000
H     1.082000000     2.567000000     5.619000000
H     2.527000000     2.143000000     5.468000000
O     6.088000000     3.521000000     3.152000000
H     6.463000000     3.094000000     3.922000000
H     6.359000000     2.971000000     2.417000000
O     4.219000000     3.574000000    -2.386000000
H     3.432000000     3.053000000    -2.227000000
H     3.896000000     4.378000000    -2.792000000
O    -0.009000000    -2.663000000    -5.150000000
H    -0.390000000    -2.622000000    -6.027000000
H    -0.610000000    -2.154000000    -4.604000000
O     1.660000000     2.466000000    -2.314000000
H     1.558000000     1.642000000    -1.837000000
H     1.129000000     2.353000000    -3.103000000
O    -1.589000000     2.985000000     6.208000000
H    -1.700000000     3.829000000     5.770000000
H    -1.832000000     2.338000000     5.545000000
O     6.716000000     2.730000000    -2.280000000
H     5.824000000     2.890000000    -2.588000000
H     6.811000000     3.299000000    -1.516000000
O    -2.669000000    -3.449000000    -4.195000000
H    -2.324000000    -2.674000000    -3.752000000
H    -2.941000000    -3.131000000    -5.056000000
O     2.653000000     5.826000000     2.767000000
H     1.918000000     5.379000000     2.348000000
H     2.467000000     5.767000000     3.704000000
O    -6.009000000     0.898000000    -2.660000000
H    -5.202000000     0.653000000    -3.114000000
H    -5.746000000     1.003000000    -1.745000000
O     4.393000000    -0.089000000     3.537000000
H     3.878000000     0.634000000     3.895000000
H     4.959000000    -0.361000000     4.259000000
O    -2.496000000    -0.932000000    -6.535000000
H    -2.460000000    -0.495000000    -5.685000000
H    -1.994000000    -0.363000000    -7.118000000
O     5.390000000    -1.004000000     0.977000000
H     4.795000000    -0.912000000     1.721000000
H     5.776000000    -0.135000000     0.869000000
O     5.272000000    -3.513000000     2.525000000
H     4.885000000    -2.822000000     1.987000000
H     5.109000000    -4.319000000     2.036000000
O     1.204000000    -1.034000000     5.217000000
H     2.047000000    -1.309000000     5.579000000
H     1.191000000    -0.085000000     5.337000000
O     6.557000000     1.346000000     0.736000000
H     6.489000000     2.135000000     0.197000000
H     7.438000000     1.385000000     1.107000000
O     4.100000000     5.750000000     0.295000000
H     4.033000000     5.664000000     1.246000000
H     3.287000000     5.369000000    -0.038000000
O     5.720000000    -1.826000000    -1.755000000
H     6.258000000    -1.150000000    -2.166000000
H     5.463000000    -1.448000000    -0.914000000
O    -5.117000000    -1.808000000     5.009000000
H    -5.443000000    -2.708000000     5.011000000
H    -4.304000000    -1.849000000     4.506000000
O    -1.701000000    -4.768000000     0.202000000
H    -1.660000000    -4.568000000    -0.733000000
H    -0.899000000    -5.260000000     0.377000000
O     6.520000000     4.163000000     0.320000000
H     5.788000000     4.525000000    -0.180000000
H     6.217000000     4.171000000     1.228000000
O     2.102000000    -2.829000000    -6.957000000
H     1.920000000    -3.700000000    -7.310000000
H     1.688000000    -2.829000000    -6.094000000
O     1.769000000    -3.913000000    -0.238000000
H     2.023000000    -3.046000000     0.077000000
H     1.453000000    -3.761000000    -1.129000000
O    -5.033000000    -1.257000000     2.054000000
H    -5.945000000    -1.480000000     2.241000000
H    -4.733000000    -1.950000000     1.466000000
O     4.502000000     0.480000000    -4.189000000
H     4.894000000     0.822000000    -4.992000000
H     4.989000000    -0.324000000    -4.008000000
O     1.645000000     4.756000000    -0.620000000
H     1.763000000     4.102000000    -1.309000000
H     0.862000000     4.470000000    -0.150000000
O    -0.996000000     0.698000000    -4.621000000
H    -0.054000000     0.710000000    -4.789000000
H    -1.109000000     0.033000000    -3.942000000
O     0.111000000     5.348000000     1.696000000
H    -0.328000000     6.121000000     1.343000000
H    -0.287000000     4.612000000     1.230000000
O     2.850000000    -2.201000000     2.304000000
H     2.971000000    -1.383000000     2.788000000
H     2.101000000    -2.621000000     2.728000000
O    -5.350000000     1.860000000    -0.332000000
H    -4.878000000     2.583000000    -0.746000000
H    -4.998000000     1.822000000     0.557000000
O     3.853000000     2.908000000     4.446000000
H     3.810000000     3.733000000     4.930000000
H     4.405000000     3.103000000     3.689000000
O    -1.138000000     3.231000000     0.559000000
H    -1.332000000     2.316000000     0.767000000
H    -1.881000000     3.519000000     0.029000000
O     0.431000000     0.687000000     7.776000000
H    -0.441000000     0.705000000     7.382000000
H     0.987000000     1.148000000     7.148000000
O    -4.832000000    -3.604000000    -2.567000000
H    -4.584000000    -3.746000000    -3.481000000
H    -4.231000000    -2.925000000    -2.259000000
O     1.403000000    -3.553000000    -2.873000000
H     2.283000000    -3.873000000    -3.071000000
H     1.039000000    -3.311000000    -3.725000000
O     0.720000000     4.369000000     4.519000000
H     0.316000000     4.707000000     3.720000000
H     0.649000000     5.089000000     5.146000000
O    -4.655000000    -0.962000000    -4.231000000
H    -5.084000000    -1.817000000    -4.200000000
H    -3.942000000    -1.029000000    -3.596000000
O    -2.908000000     2.308000000    -3.563000000
H    -2.575000000     2.381000000    -2.668000000
H    -2.322000000     1.681000000    -3.986000000
O     1.649000000     0.817000000    -4.943000000
H     1.957000000     1.385000000    -5.648000000
H     2.441000000     0.585000000    -4.458000000
O    -2.104000000    -1.501000000     3.752000000
H    -2.357000000    -2.161000000     3.106000000
H    -1.165000000    -1.636000000     3.877000000
O    -4.507000000     1.479000000     2.215000000
H    -4.443000000     0.524000000     2.246000000
H    -4.094000000     1.773000000     3.027000000
O    -5.790000000    -4.854000000     1.409000000
H    -5.279000000    -4.050000000     1.313000000
H    -5.766000000    -5.259000000     0.543000000
