144
-2856.26644
O     1.230000000     5.378000000     4.870000000
H     0.525000000     4.753000000     5.039000000
H     1.703000000     5.010000000     4.124000000
O    -5.259000000     2.218000000    -1.849000000
H    -4.312000000     2.084000000    -1.876000000
H    -5.539000000     2.135000000    -2.761000000
O     1.388000000     0.925000000     5.508000000
H     2.086000000     1.226000000     6.091000000
H     1.497000000     1.449000000     4.715000000
O     3.612000000    -0.807000000    -5.171000000
H     3.146000000    -0.449000000    -5.927000000
H     3.131000000    -1.604000000    -4.948000000
O    -4.566000000    -5.972000000    -1.109000000
H    -3.896000000    -6.656000000    -1.105000000
H    -4.089000000    -5.168000000    -0.902000000
O     0.781000000     5.005000000     0.643000000
H     1.121000000     5.775000000     0.186000000
H     0.021000000     4.737000000     0.128000000
O     4.632000000     2.633000000    -1.203000000
H     4.904000000     2.445000000    -0.305000000
H     4.912000000     1.867000000    -1.703000000
O    -4.134000000    -2.887000000    -0.532000000
H    -5.010000000    -2.824000000    -0.913000000
H    -3.550000000    -2.569000000    -1.220000000
O    -1.866000000     0.996000000     4.930000000
H    -2.330000000     0.161000000     4.877000000
H    -1.119000000     0.818000000     5.502000000
O     0.070000000    -0.903000000     6.735000000
H     0.528000000    -0.200000000     6.275000000
H    -0.057000000    -1.581000000     6.071000000
O     1.104000000    -3.733000000    -7.883000000
H     1.262000000    -4.497000000    -8.438000000
H     0.382000000    -3.997000000    -7.313000000
O     5.141000000    -0.322000000     3.756000000
H     4.473000000     0.300000000     3.466000000
H     5.937000000    -0.049000000     3.299000000
O     3.884000000     2.281000000     3.915000000
H     4.481000000     2.765000000     4.486000000
H     3.490000000     2.952000000     3.357000000
O    -0.566000000    -5.493000000    -1.975000000
H    -0.170000000    -5.155000000    -1.172000000
H    -1.469000000    -5.178000000    -1.948000000
O    -2.527000000    -2.479000000    -7.173000000
H    -2.928000000    -2.661000000    -6.324000000
H    -2.204000000    -3.328000000    -7.474000000
O    -3.627000000     2.229000000     3.079000000
H    -3.707000000     3.062000000     3.544000000
H    -3.315000000     1.614000000     3.742000000
O    -0.272000000    -2.109000000     4.112000000
H     0.656000000    -2.090000000     3.877000000
H    -0.516000000    -3.033000000     4.049000000
O    -2.543000000    -3.608000000    -4.533000000
H    -2.185000000    -3.120000000    -3.792000000
H    -3.369000000    -3.967000000    -4.207000000
O    -6.676000000    -1.262000000     0.256000000
H    -6.012000000    -0.934000000     0.863000000
H    -6.987000000    -0.482000000    -0.203000000
O     4.042000000    -2.635000000    -2.037000000
H     3.155000000    -2.881000000    -2.301000000
H     4.606000000    -3.012000000    -2.712000000
O     1.708000000     0.209000000    -6.942000000
H     0.961000000    -0.009000000    -6.385000000
H     1.414000000     0.002000000    -7.829000000
O    -2.580000000     2.073000000    -1.803000000
H    -2.465000000     1.595000000    -2.624000000
H    -1.807000000     1.849000000    -1.285000000
O     2.340000000     4.397000000     2.841000000
H     3.083000000     4.949000000     2.594000000
H     1.750000000     4.441000000     2.089000000
O    -0.579000000     1.360000000    -3.545000000
H     0.269000000     1.728000000    -3.297000000
H    -0.384000000     0.458000000    -3.800000000
O     1.505000000    -2.474000000     1.367000000
H     1.272000000    -1.751000000     0.784000000
H     1.919000000    -2.052000000     2.119000000
O    -3.439000000    -0.374000000    -3.818000000
H    -2.919000000    -1.061000000    -3.401000000
H    -4.080000000    -0.847000000    -4.348000000
O     4.549000000    -1.535000000     0.610000000
H     4.059000000    -2.057000000     1.246000000
H     4.352000000    -1.940000000    -0.235000000
O    -0.898000000     3.595000000     5.298000000
H    -1.422000000     2.994000000     4.770000000
H    -0.865000000     3.188000000     6.164000000
O    -0.693000000    -5.095000000    -6.196000000
H    -1.299000000    -4.545000000    -5.701000000
H    -1.238000000    -5.511000000    -6.864000000
O     6.101000000     2.132000000     1.339000000
H     6.469000000     2.181000000     2.222000000
H     6.409000000     1.293000000     0.998000000
O    -0.335000000    -4.619000000     0.642000000
H     0.342000000    -3.974000000     0.847000000
H    -1.133000000    -4.260000000     1.030000000
O     2.049000000    -3.012000000    -4.143000000
H     1.302000000    -2.544000000    -3.770000000
H     1.745000000    -3.915000000    -4.232000000
O    -2.480000000     1.033000000    -6.034000000
H    -1.666000000     0.587000000    -6.272000000
H    -2.864000000     0.481000000    -5.353000000
O    -0.579000000    -1.125000000    -5.719000000
H    -0.331000000    -1.485000000    -4.867000000
H    -1.242000000    -1.730000000    -6.051000000
O    -4.947000000     3.697000000     0.809000000
H    -4.763000000     3.243000000    -0.013000000
H    -4.312000000     3.338000000     1.428000000
O     1.131000000    -5.501000000    -4.013000000
H     0.393000000    -5.559000000    -3.406000000
H     0.731000000    -5.543000000    -4.881000000
O    -5.990000000    -3.190000000     3.094000000
H    -6.379000000    -3.855000000     2.526000000
H    -5.715000000    -2.495000000     2.496000000
O     4.312000000     0.266000000    -2.748000000
H     3.940000000     0.071000000    -3.608000000
H     4.346000000    -0.582000000    -2.305000000
O     2.451000000    -1.506000000     3.844000000
H     2.037000000    -0.840000000     4.393000000
H     3.390000000    -1.359000000     3.956000000
O    -3.533000000     4.727000000     4.602000000
H    -2.576000000     4.708000000     4.568000000
H    -3.757000000     5.655000000     4.539000000
O    -3.320000000    -1.120000000     4.004000000
H    -3.932000000    -0.699000000     3.400000000
H    -3.133000000    -1.968000000     3.602000000
O    -5.539000000     0.272000000     2.131000000
H    -5.065000000     1.080000000     2.328000000
H    -6.463000000     0.522000000     2.166000000
O     4.744000000     5.666000000     2.253000000
H     4.695000000     5.210000000     1.412000000
H     5.605000000     6.083000000     2.250000000
O     7.034000000    -0.718000000     1.337000000
H     6.086000000    -0.832000000     1.268000000
H     7.381000000    -1.610000000     1.364000000
O     4.427000000     5.325000000    -0.707000000
H     3.510000000     5.496000000    -0.923000000
H     4.571000000     4.418000000    -0.976000000
O     2.088000000     2.328000000    -3.368000000
H     2.688000000     3.059000000    -3.516000000
H     2.660000000     1.571000000    -3.243000000
O    -5.148000000    -4.648000000    -3.476000000
H    -4.934000000    -5.417000000    -2.947000000
H    -5.804000000    -4.179000000    -2.961000000
O    -2.421000000    -2.908000000     1.866000000
H    -1.870000000    -2.151000000     1.668000000
H    -3.088000000    -2.906000000     1.180000000
