144
-2845.32151
O     4.396000000     0.923000000     3.761000000
H     3.702000000     0.592000000     4.331000000
H     5.175000000     0.433000000     4.023000000
O    -6.831000000    -0.193000000    -4.845000000
H    -6.485000000     0.685000000    -5.005000000
H    -6.096000000    -0.777000000    -5.031000000
O     4.656000000    -3.234000000     4.516000000
H     3.765000000    -2.887000000     4.551000000
H     5.000000000    -3.101000000     5.400000000
O    -4.643000000    -0.424000000    -2.202000000
H    -3.731000000    -0.500000000    -2.483000000
H    -5.140000000    -0.361000000    -3.018000000
O    -3.013000000    -0.670000000     5.483000000
H    -2.303000000    -1.278000000     5.275000000
H    -2.665000000     0.192000000     5.255000000
O     3.628000000     2.942000000    -2.392000000
H     4.520000000     2.699000000    -2.143000000
H     3.629000000     2.908000000    -3.348000000
O    -1.713000000    -4.523000000    -0.163000000
H    -2.530000000    -4.430000000     0.327000000
H    -1.588000000    -3.672000000    -0.583000000
O    -3.889000000     2.166000000     2.808000000
H    -4.276000000     1.296000000     2.901000000
H    -4.528000000     2.756000000     3.209000000
O     0.716000000     5.874000000     1.884000000
H     1.495000000     5.550000000     1.431000000
H     0.758000000     6.825000000     1.784000000
O     5.459000000    -2.051000000     0.585000000
H     5.684000000    -1.623000000    -0.240000000
H     6.125000000    -1.748000000     1.202000000
O    -1.623000000     2.715000000     4.502000000
H    -2.485000000     2.525000000     4.132000000
H    -1.394000000     3.573000000     4.147000000
O     0.038000000    -4.176000000    -3.548000000
H    -0.811000000    -4.319000000    -3.965000000
H     0.063000000    -3.236000000    -3.372000000
O    -4.096000000    -5.150000000    -5.721000000
H    -4.041000000    -4.471000000    -5.049000000
H    -4.335000000    -5.943000000    -5.242000000
O     2.930000000    -0.627000000     5.646000000
H     2.937000000    -1.118000000     6.468000000
H     2.360000000    -1.136000000     5.069000000
O    -3.238000000     2.819000000     0.273000000
H    -4.037000000     2.529000000    -0.166000000
H    -3.393000000     2.635000000     1.200000000
O    -4.965000000    -3.236000000    -1.443000000
H    -5.121000000    -2.966000000    -0.538000000
H    -5.122000000    -2.445000000    -1.959000000
O     3.828000000    -2.023000000    -3.355000000
H     4.320000000    -2.765000000    -3.709000000
H     3.274000000    -2.406000000    -2.675000000
O     1.245000000    -3.611000000    -6.137000000
H     1.491000000    -4.116000000    -5.362000000
H     0.400000000    -3.222000000    -5.911000000
O     0.776000000     3.278000000    -2.946000000
H     0.261000000     3.165000000    -2.148000000
H     1.654000000     2.978000000    -2.710000000
O     2.174000000     3.640000000    -0.053000000
H     2.610000000     3.170000000    -0.763000000
H     1.243000000     3.460000000    -0.182000000
O     1.722000000    -0.248000000    -4.399000000
H     2.437000000    -0.826000000    -4.132000000
H     0.927000000    -0.733000000    -4.179000000
O     0.742000000    -0.399000000    -7.971000000
H     0.333000000    -0.870000000    -8.698000000
H     0.529000000    -0.920000000    -7.198000000
O    -0.030000000    -2.392000000     1.278000000
H     0.249000000    -1.554000000     0.907000000
H     0.745000000    -2.951000000     1.217000000
O    -0.771000000     1.324000000     6.621000000
H    -1.013000000     1.740000000     5.794000000
H     0.174000000     1.457000000     6.689000000
O    -4.619000000    -1.717000000    -5.102000000
H    -3.968000000    -2.353000000    -4.804000000
H    -4.498000000    -1.677000000    -6.051000000
O    -5.662000000     1.675000000    -0.608000000
H    -6.340000000     1.086000000    -0.278000000
H    -5.279000000     1.208000000    -1.351000000
O     2.718000000    -3.528000000     1.609000000
H     3.224000000    -4.341000000     1.581000000
H     2.973000000    -3.060000000     0.814000000
O    -0.941000000    -2.058000000     4.581000000
H    -0.462000000    -2.248000000     5.387000000
H    -0.432000000    -2.486000000     3.893000000
O     1.979000000     1.623000000     6.809000000
H     2.378000000     0.890000000     6.340000000
H     2.521000000     1.731000000     7.591000000
O     6.008000000     1.837000000    -1.690000000
H     6.782000000     1.640000000    -1.161000000
H     5.811000000     1.015000000    -2.140000000
O    -3.044000000     5.561000000     0.916000000
H    -2.763000000     5.440000000     1.823000000
H    -3.146000000     4.673000000     0.576000000
O     0.945000000    -5.956000000    -1.633000000
H     0.737000000    -5.253000000    -2.249000000
H     0.108000000    -6.166000000    -1.217000000
O    -3.355000000     3.238000000    -2.906000000
H    -2.811000000     2.908000000    -2.191000000
H    -3.225000000     4.186000000    -2.889000000
O     1.799000000    -3.052000000     3.980000000
H     1.399000000    -3.918000000     3.903000000
H     2.254000000    -2.924000000     3.147000000
O    -0.996000000    -1.872000000    -5.959000000
H    -0.874000000    -1.905000000    -5.011000000
H    -1.607000000    -1.148000000    -6.098000000
O    -3.269000000    -3.647000000    -3.319000000
H    -3.826000000    -3.593000000    -2.542000000
H    -2.786000000    -2.821000000    -3.326000000
O    -2.064000000     0.640000000    -5.831000000
H    -1.805000000     1.495000000    -6.176000000
H    -2.417000000     0.829000000    -4.962000000
O     3.122000000     4.093000000     5.198000000
H     2.549000000     3.417000000     5.560000000
H     2.959000000     4.066000000     4.255000000
O    -1.737000000     5.551000000     3.356000000
H    -0.874000000     5.538000000     2.944000000
H    -1.604000000     6.025000000     4.177000000
O    -5.045000000    -2.505000000     1.464000000
H    -4.849000000    -3.036000000     2.236000000
H    -4.354000000    -1.843000000     1.448000000
O    -5.176000000    -0.197000000     3.409000000
H    -6.129000000    -0.221000000     3.488000000
H    -4.900000000    -1.100000000     3.566000000
O     3.773000000     3.479000000     2.655000000
H     3.922000000     2.557000000     2.866000000
H     3.473000000     3.472000000     1.747000000
O     2.920000000    -3.886000000    -1.345000000
H     2.255000000    -4.572000000    -1.300000000
H     3.747000000    -4.343000000    -1.194000000
O    -0.512000000     3.666000000    -0.595000000
H    -1.407000000     3.439000000    -0.340000000
H    -0.506000000     4.623000000    -0.618000000
O     5.949000000    -1.101000000    -2.094000000
H     5.378000000    -1.370000000    -2.813000000
H     6.689000000    -1.707000000    -2.137000000
O     3.407000000     1.811000000    -4.869000000
H     3.047000000     2.096000000    -5.709000000
H     2.928000000     1.008000000    -4.664000000
O    -2.513000000    -6.154000000    -2.065000000
H    -2.808000000    -5.467000000    -2.664000000
H    -2.205000000    -5.681000000    -1.292000000
O    -2.537000000    -2.687000000     2.458000000
H    -2.093000000    -2.342000000     3.232000000
H    -1.849000000    -2.752000000     1.796000000
