144
-2812.53891
O     4.718000000     3.809000000     2.617000000
H     4.414000000     4.559000000     2.106000000
H     5.612000000     4.038000000     2.870000000
O     3.053000000    -4.395000000     2.904000000
H     2.274000000    -3.861000000     2.751000000
H     3.773000000    -3.765000000     2.936000000
O     3.480000000     1.881000000    -2.363000000
H     3.887000000     2.210000000    -1.561000000
H     2.795000000     2.518000000    -2.563000000
O    -3.355000000    -0.897000000     3.688000000
H    -3.781000000    -1.709000000     3.963000000
H    -2.834000000    -1.146000000     2.924000000
O    -1.143000000    -5.691000000    -2.423000000
H    -0.455000000    -5.204000000    -1.970000000
H    -1.060000000    -5.427000000    -3.340000000
O     4.005000000    -6.640000000     0.649000000
H     3.711000000    -5.931000000     1.221000000
H     4.584000000    -6.214000000     0.018000000
O     1.270000000     0.186000000    -6.351000000
H     0.916000000     0.883000000    -5.798000000
H     1.549000000    -0.491000000    -5.734000000
O     0.460000000     2.300000000    -5.002000000
H     0.970000000     2.857000000    -4.414000000
H    -0.336000000     2.802000000    -5.177000000
O    -0.060000000     4.591000000     1.076000000
H    -0.171000000     3.819000000     1.630000000
H     0.588000000     5.125000000     1.536000000
O    -2.562000000    -5.881000000     1.128000000
H    -3.203000000    -5.488000000     1.722000000
H    -1.999000000    -5.152000000     0.869000000
O    -3.356000000     2.078000000     1.129000000
H    -3.838000000     1.870000000     0.328000000
H    -3.298000000     3.034000000     1.131000000
O     6.746000000    -3.422000000     5.345000000
H     6.664000000    -4.364000000     5.197000000
H     6.001000000    -3.040000000     4.881000000
O    -0.880000000     2.003000000     2.316000000
H    -1.818000000     1.843000000     2.213000000
H    -0.472000000     1.512000000     1.603000000
O     4.849000000     1.787000000     0.057000000
H     4.684000000     2.245000000     0.881000000
H     4.665000000     0.868000000     0.253000000
O     1.835000000    -7.066000000     3.284000000
H     2.332000000    -6.287000000     3.034000000
H     0.927000000    -6.850000000     3.068000000
O    -4.493000000     0.947000000    -4.684000000
H    -4.730000000     1.764000000    -4.244000000
H    -4.116000000     1.225000000    -5.519000000
O     1.440000000    -5.196000000     7.266000000
H     0.828000000    -4.728000000     6.698000000
H     0.880000000    -5.667000000     7.884000000
O     0.680000000    -4.724000000    -0.201000000
H     0.491000000    -4.880000000     0.724000000
H     1.412000000    -4.107000000    -0.195000000
O     0.353000000    -2.114000000     7.571000000
H     0.148000000    -1.797000000     6.692000000
H     0.020000000    -3.011000000     7.587000000
O    -2.704000000     2.264000000    -6.599000000
H    -2.494000000     2.301000000    -5.666000000
H    -2.257000000     3.021000000    -6.976000000
O    -2.190000000    -2.768000000    -3.976000000
H    -2.009000000    -3.388000000    -4.683000000
H    -1.329000000    -2.438000000    -3.720000000
O    -5.231000000     3.608000000    -4.185000000
H    -5.854000000     4.076000000    -3.629000000
H    -5.090000000     4.191000000    -4.931000000
O    -3.903000000    -2.219000000     0.991000000
H    -3.361000000    -2.595000000     0.298000000
H    -4.755000000    -2.642000000     0.886000000
O     1.611000000     4.045000000    -3.106000000
H     0.925000000     4.351000000    -2.513000000
H     2.185000000     4.803000000    -3.221000000
O    -4.491000000    -1.442000000    -3.277000000
H    -4.596000000    -0.564000000    -3.644000000
H    -3.589000000    -1.683000000    -3.485000000
O     4.309000000    -0.831000000     0.438000000
H     3.749000000    -0.981000000     1.199000000
H     4.284000000    -1.658000000    -0.045000000
O    -2.499000000    -3.695000000    -0.805000000
H    -2.846000000    -4.495000000    -1.198000000
H    -2.153000000    -3.195000000    -1.545000000
O    -1.269000000    -4.300000000     6.561000000
H    -2.107000000    -4.173000000     7.007000000
H    -1.507000000    -4.628000000     5.694000000
O     1.831000000     0.124000000     7.181000000
H     2.665000000    -0.050000000     6.745000000
H     1.328000000    -0.683000000     7.066000000
O    -0.320000000     5.312000000    -1.743000000
H    -1.228000000     5.615000000    -1.729000000
H    -0.043000000     5.344000000    -0.827000000
O    -5.788000000    -3.792000000    -3.238000000
H    -5.944000000    -4.097000000    -2.344000000
H    -5.239000000    -3.014000000    -3.132000000
O     1.189000000     4.990000000     3.607000000
H     0.437000000     4.974000000     4.199000000
H     1.706000000     4.223000000     3.855000000
O     6.694000000     0.765000000     2.917000000
H     6.919000000     0.457000000     3.795000000
H     6.842000000     1.711000000     2.950000000
O     0.235000000     1.765000000     4.605000000
H     1.007000000     2.240000000     4.913000000
H     0.005000000     2.191000000     3.780000000
O     5.164000000    -2.032000000     3.593000000
H     4.271000000    -1.694000000     3.524000000
H     5.662000000    -1.525000000     2.952000000
O     0.084000000    -1.766000000    -2.957000000
H    -0.164000000    -1.755000000    -2.033000000
H     0.980000000    -1.429000000    -2.968000000
O    -3.395000000     4.956000000    -2.284000000
H    -4.083000000     4.619000000    -1.710000000
H    -3.632000000     4.639000000    -3.155000000
O    -2.214000000    -5.359000000     4.140000000
H    -2.359000000    -6.221000000     4.530000000
H    -3.089000000    -5.055000000     3.900000000
O     2.530000000    -0.794000000    -3.166000000
H     3.125000000    -1.241000000    -2.564000000
H     2.671000000     0.137000000    -2.995000000
O    -5.470000000     4.308000000    -0.481000000
H    -6.352000000     4.422000000    -0.129000000
H    -4.891000000     4.563000000     0.237000000
O     2.782000000     2.898000000     4.222000000
H     3.502000000     3.202000000     3.669000000
H     2.905000000     1.950000000     4.275000000
O    -0.297000000    -4.869000000     2.337000000
H     0.060000000    -4.013000000     2.572000000
H    -1.115000000    -4.931000000     2.830000000
O    -1.306000000     4.096000000    -4.442000000
H    -1.066000000     4.997000000    -4.660000000
H    -1.133000000     4.023000000    -3.504000000
O    -3.449000000     4.989000000     1.507000000
H    -2.704000000     5.555000000     1.304000000
H    -3.343000000     4.777000000     2.434000000
O    -5.638000000     0.070000000     0.090000000
H    -4.986000000     0.019000000     0.788000000
H    -5.478000000    -0.708000000    -0.444000000
O     3.493000000    -3.627000000    -0.624000000
H     4.367000000    -3.701000000    -0.241000000
H     3.636000000    -3.714000000    -1.566000000
O     0.468000000    -1.348000000     4.970000000
H     0.238000000    -0.423000000     4.884000000
H     0.635000000    -1.639000000     4.073000000
O     3.608000000     0.294000000     4.497000000
H     4.338000000    -0.213000000     4.853000000
H     3.106000000    -0.338000000     3.983000000
