144
-2805.86671
O     2.230000000     3.394000000     3.166000000
H     2.710000000     2.569000000     3.229000000
H     2.196000000     3.581000000     2.228000000
O    -4.049000000     5.430000000    -0.229000000
H    -4.948000000     5.758000000    -0.245000000
H    -3.801000000     5.367000000    -1.152000000
O     4.351000000    -2.346000000     0.803000000
H     4.263000000    -1.900000000    -0.039000000
H     4.639000000    -3.230000000     0.577000000
O    -3.258000000     0.436000000     0.091000000
H    -2.420000000     0.790000000    -0.208000000
H    -3.032000000    -0.112000000     0.842000000
O    -0.464000000    -3.955000000    -4.801000000
H    -0.106000000    -3.581000000    -5.607000000
H    -0.492000000    -3.221000000    -4.188000000
O    -1.957000000     3.932000000     1.769000000
H    -1.327000000     4.629000000     1.949000000
H    -2.518000000     4.288000000     1.080000000
O    -1.590000000    -2.782000000     5.578000000
H    -1.610000000    -3.598000000     6.077000000
H    -0.679000000    -2.694000000     5.298000000
O     1.692000000     0.448000000    -6.653000000
H     1.720000000     1.402000000    -6.583000000
H     1.272000000     0.281000000    -7.497000000
O     2.934000000     2.240000000     0.340000000
H     2.177000000     1.667000000     0.461000000
H     2.753000000     2.707000000    -0.475000000
O     1.978000000    -3.093000000    -3.720000000
H     1.877000000    -3.192000000    -4.667000000
H     1.192000000    -2.622000000    -3.444000000
O    -3.959000000     0.197000000    -6.480000000
H    -3.157000000    -0.230000000    -6.783000000
H    -4.482000000    -0.513000000    -6.108000000
O    -4.686000000    -2.693000000    -2.463000000
H    -4.821000000    -2.828000000    -3.401000000
H    -5.204000000    -3.380000000    -2.044000000
O    -4.811000000     0.946000000    -3.616000000
H    -4.784000000     0.768000000    -2.676000000
H    -3.972000000     1.365000000    -3.805000000
O     4.222000000    -0.836000000    -1.685000000
H     3.951000000     0.031000000    -1.382000000
H     4.152000000    -0.789000000    -2.638000000
O    -2.994000000     1.797000000     3.083000000
H    -3.835000000     2.156000000     3.365000000
H    -2.565000000     2.522000000     2.628000000
O     2.867000000    -0.517000000    -4.521000000
H     2.335000000    -1.220000000    -4.147000000
H     2.362000000    -0.210000000    -5.274000000
O    -4.009000000    -1.309000000     6.147000000
H    -3.076000000    -1.449000000     5.985000000
H    -4.256000000    -2.013000000     6.747000000
O     2.175000000     3.256000000    -2.299000000
H     3.080000000     3.237000000    -2.610000000
H     1.647000000     3.148000000    -3.090000000
O     3.696000000     0.951000000     3.488000000
H     3.442000000     0.218000000     2.928000000
H     4.651000000     0.903000000     3.527000000
O     0.624000000     2.586000000    -4.386000000
H     0.128000000     2.962000000    -5.113000000
H     0.140000000     1.796000000    -4.148000000
O    -1.937000000     1.148000000     5.465000000
H    -2.348000000     1.829000000     5.996000000
H    -2.247000000     1.317000000     4.576000000
O    -1.374000000    -0.574000000    -6.304000000
H    -1.066000000    -0.396000000    -5.415000000
H    -0.594000000    -0.867000000    -6.774000000
O    -3.052000000     3.473000000     6.626000000
H    -2.138000000     3.660000000     6.412000000
H    -3.539000000     4.215000000     6.269000000
O    -2.370000000     1.816000000    -3.687000000
H    -2.193000000     2.458000000    -4.374000000
H    -1.658000000     1.181000000    -3.764000000
O     3.101000000    -2.256000000     3.290000000
H     3.641000000    -2.279000000     2.501000000
H     3.719000000    -2.073000000     3.998000000
O    -3.306000000    -2.493000000    -4.969000000
H    -2.814000000    -3.308000000    -4.869000000
H    -2.663000000    -1.862000000    -5.291000000
O     1.200000000    -4.306000000     1.871000000
H     1.865000000    -3.685000000     2.168000000
H     0.454000000    -4.154000000     2.451000000
O    -3.059000000    -5.102000000    -3.924000000
H    -2.543000000    -5.851000000    -4.221000000
H    -2.697000000    -4.888000000    -3.064000000
O    -0.119000000     4.887000000    -1.034000000
H     0.452000000     4.422000000    -1.646000000
H    -0.867000000     4.303000000    -0.913000000
O    -1.135000000    -4.286000000     3.303000000
H    -1.783000000    -4.428000000     2.612000000
H    -1.369000000    -4.917000000     3.983000000
O     2.780000000     2.990000000    -6.031000000
H     2.918000000     3.927000000    -5.891000000
H     2.327000000     2.694000000    -5.241000000
O    -0.830000000    -5.923000000    -2.617000000
H    -0.598000000    -5.270000000    -3.278000000
H    -0.294000000    -5.696000000    -1.857000000
O     0.783000000     1.066000000     6.532000000
H     1.145000000     0.190000000     6.396000000
H    -0.009000000     1.083000000     5.995000000
O    -3.116000000    -3.134000000     1.291000000
H    -3.063000000    -2.276000000     1.712000000
H    -2.401000000    -3.132000000     0.654000000
O    -0.293000000     3.661000000     6.636000000
H     0.208000000     2.847000000     6.578000000
H     0.318000000     4.339000000     6.348000000
O    -2.508000000     3.434000000    -1.438000000
H    -2.604000000     2.709000000    -2.054000000
H    -2.737000000     4.212000000    -1.946000000
O     4.395000000    -4.498000000    -3.481000000
H     4.750000000    -3.672000000    -3.155000000
H     3.463000000    -4.322000000    -3.616000000
O     1.344000000    -2.031000000     5.454000000
H     1.802000000    -2.604000000     6.069000000
H     1.835000000    -2.116000000     4.637000000
O     1.245000000    -2.520000000    -6.497000000
H     1.646000000    -1.659000000    -6.614000000
H     0.976000000    -2.781000000    -7.378000000
O     3.082000000    -5.860000000     3.976000000
H     2.386000000    -6.378000000     4.380000000
H     2.632000000    -5.317000000     3.329000000
O     2.173000000    -5.712000000    -5.093000000
H     1.656000000    -5.138000000    -4.528000000
H     2.146000000    -6.564000000    -4.657000000
O     5.649000000     2.140000000     0.113000000
H     5.809000000     1.458000000    -0.540000000
H     4.697000000     2.164000000     0.205000000
O    -4.988000000     2.602000000     0.433000000
H    -4.341000000     1.912000000     0.280000000
H    -4.683000000     3.338000000    -0.097000000
O    -3.152000000    -0.863000000     2.733000000
H    -3.204000000     0.077000000     2.908000000
H    -2.756000000    -1.232000000     3.523000000
O    -0.198000000    -5.073000000    -0.221000000
H    -0.663000000    -4.260000000    -0.414000000
H     0.112000000    -4.965000000     0.678000000
O    -1.870000000    -3.028000000    -1.298000000
H    -2.772000000    -2.748000000    -1.456000000
H    -1.350000000    -2.522000000    -1.922000000
O    -1.713000000    -0.584000000     7.840000000
H    -1.673000000    -0.601000000     6.884000000
H    -1.570000000     0.334000000     8.069000000
O     1.908000000     5.258000000     5.149000000
H     2.001000000     4.414000000     4.707000000
H     2.038000000     5.906000000     4.457000000
