144
-2799.64041
O     5.482000000     4.861000000     2.018000000
H     6.023000000     4.072000000     2.004000000
H     4.881000000     4.752000000     1.281000000
O     0.142000000     5.085000000    -0.742000000
H    -0.309000000     4.651000000    -0.018000000
H    -0.043000000     4.535000000    -1.503000000
O    -3.705000000    -2.659000000    -7.067000000
H    -4.516000000    -3.164000000    -7.120000000
H    -3.839000000    -2.068000000    -6.325000000
O     1.884000000     5.532000000     1.319000000
H     1.186000000     5.511000000     0.665000000
H     2.691000000     5.451000000     0.811000000
O     4.210000000     4.131000000     5.896000000
H     3.735000000     4.112000000     5.065000000
H     4.827000000     4.858000000     5.803000000
O     5.246000000    -2.802000000    -1.554000000
H     4.748000000    -2.472000000    -0.806000000
H     4.580000000    -3.039000000    -2.199000000
O     4.462000000     0.282000000     4.062000000
H     5.358000000    -0.027000000     4.201000000
H     4.476000000     0.671000000     3.188000000
O     1.740000000     1.167000000     7.174000000
H     2.201000000     0.363000000     7.414000000
H     1.293000000     0.951000000     6.356000000
O    -0.636000000    -3.735000000    -4.374000000
H     0.109000000    -3.160000000    -4.549000000
H    -0.814000000    -3.618000000    -3.441000000
O     4.687000000     1.146000000     6.758000000
H     3.917000000     1.619000000     7.075000000
H     4.416000000     0.787000000     5.913000000
O    -6.211000000    -0.484000000    -4.281000000
H    -6.325000000     0.388000000    -4.659000000
H    -7.044000000    -0.926000000    -4.444000000
O     1.338000000    -6.988000000    -2.560000000
H     1.517000000    -6.061000000    -2.405000000
H     0.885000000    -7.007000000    -3.404000000
O     3.058000000    -2.824000000    -3.576000000
H     2.953000000    -2.721000000    -4.522000000
H     2.990000000    -1.934000000    -3.229000000
O     4.602000000    -2.423000000     1.061000000
H     5.201000000    -2.840000000     1.681000000
H     3.734000000    -2.556000000     1.441000000
O     1.863000000    -5.394000000     0.328000000
H     2.263000000    -6.257000000     0.438000000
H     1.776000000    -5.289000000    -0.620000000
O    -4.250000000     3.598000000     1.838000000
H    -3.778000000     2.772000000     1.728000000
H    -5.172000000     3.343000000     1.874000000
O    -3.723000000    -3.205000000     1.402000000
H    -4.637000000    -3.484000000     1.455000000
H    -3.770000000    -2.275000000     1.180000000
O     5.819000000     0.051000000     1.017000000
H     5.579000000     0.539000000     0.229000000
H     5.146000000    -0.625000000     1.094000000
O     3.876000000     4.979000000    -0.530000000
H     4.109000000     5.820000000    -0.923000000
H     4.566000000     4.381000000    -0.816000000
O    -3.566000000     2.534000000    -3.152000000
H    -2.754000000     2.147000000    -3.479000000
H    -4.175000000     2.469000000    -3.887000000
O     4.836000000     0.696000000    -1.867000000
H     4.011000000     0.443000000    -2.282000000
H     5.504000000     0.205000000    -2.346000000
O     2.356000000    -3.299000000     2.154000000
H     1.587000000    -2.870000000     2.529000000
H     2.003000000    -4.057000000     1.687000000
O    -0.795000000     1.365000000    -4.543000000
H    -1.272000000     0.570000000    -4.781000000
H    -0.370000000     1.641000000    -5.355000000
O    -2.081000000    -1.013000000    -5.030000000
H    -2.174000000    -1.189000000    -4.094000000
H    -1.531000000    -1.727000000    -5.354000000
O    -4.937000000    -2.727000000    -3.494000000
H    -4.184000000    -2.446000000    -2.975000000
H    -5.296000000    -1.916000000    -3.855000000
O    -6.114000000    -4.188000000    -1.556000000
H    -5.541000000    -3.745000000    -2.182000000
H    -6.861000000    -3.598000000    -1.457000000
O     0.098000000    -3.121000000     3.773000000
H     0.425000000    -3.734000000     4.432000000
H    -0.828000000    -3.012000000     3.987000000
O    -2.876000000    -5.263000000    -5.631000000
H    -2.342000000    -4.630000000    -5.150000000
H    -3.506000000    -4.727000000    -6.113000000
O     2.149000000    -0.444000000    -2.595000000
H     1.610000000    -0.188000000    -1.847000000
H     1.771000000     0.029000000    -3.337000000
O    -3.779000000     0.175000000    -6.688000000
H    -3.245000000    -0.294000000    -6.047000000
H    -3.460000000    -0.132000000    -7.537000000
O    -4.002000000    -0.473000000     3.333000000
H    -4.870000000    -0.099000000     3.487000000
H    -3.971000000    -0.625000000     2.389000000
O     1.223000000    -2.209000000    -5.465000000
H     1.007000000    -2.386000000    -6.380000000
H     1.523000000    -1.300000000    -5.461000000
O    -1.686000000    -7.258000000    -3.929000000
H    -1.886000000    -7.989000000    -4.513000000
H    -1.846000000    -6.477000000    -4.459000000
O    -1.095000000     4.445000000     1.644000000
H    -0.794000000     3.907000000     2.376000000
H    -1.708000000     5.065000000     2.038000000
O     5.786000000     3.237000000    -1.502000000
H     5.689000000     2.286000000    -1.547000000
H     6.702000000     3.396000000    -1.730000000
O    -0.104000000     3.265000000     4.326000000
H    -0.425000000     3.395000000     5.218000000
H     0.193000000     2.355000000     4.308000000
O     1.346000000    -4.349000000    -2.147000000
H     0.492000000    -3.916000000    -2.153000000
H     1.943000000    -3.707000000    -2.533000000
O    -4.984000000     0.513000000    -1.305000000
H    -4.730000000     1.429000000    -1.418000000
H    -5.130000000     0.193000000    -2.195000000
O     0.895000000    -5.371000000    -5.799000000
H     0.996000000    -4.858000000    -6.601000000
H     0.303000000    -4.851000000    -5.256000000
O     0.815000000    -0.075000000     5.030000000
H     1.469000000    -0.659000000     4.647000000
H     0.385000000    -0.605000000     5.701000000
O    -3.438000000     5.797000000     0.185000000
H    -3.074000000     4.929000000     0.360000000
H    -4.333000000     5.626000000    -0.107000000
O    -1.662000000    -7.454000000    -0.630000000
H    -1.177000000    -7.350000000    -1.449000000
H    -1.906000000    -6.562000000    -0.382000000
O    -1.718000000    -4.761000000    -0.186000000
H    -2.465000000    -4.250000000     0.126000000
H    -1.382000000    -4.263000000    -0.931000000
O     3.284000000     4.324000000     3.376000000
H     3.903000000     4.759000000     2.790000000
H     2.541000000     4.099000000     2.815000000
O     3.245000000    -1.923000000     4.853000000
H     3.802000000    -1.168000000     4.661000000
H     3.203000000    -2.406000000     4.028000000
O    -3.585000000    -0.541000000     0.672000000
H    -3.984000000    -0.313000000    -0.167000000
H    -2.673000000    -0.261000000     0.588000000
O     2.608000000     6.965000000     3.793000000
H     2.208000000     6.124000000     3.572000000
H     3.520000000     6.876000000     3.518000000
O    -1.776000000    -5.426000000     2.550000000
H    -0.927000000    -5.072000000     2.817000000
H    -1.965000000    -4.991000000     1.718000000
