144
-2826.10430
O     4.303000000     3.905000000     1.635000000
H     3.793000000     3.856000000     0.826000000
H     4.829000000     4.699000000     1.538000000
O    -2.160000000     3.501000000     3.476000000
H    -1.998000000     4.188000000     2.829000000
H    -1.290000000     3.163000000     3.690000000
O    -2.650000000     2.681000000    -2.698000000
H    -2.893000000     1.844000000    -2.302000000
H    -3.459000000     3.193000000    -2.692000000
O     3.743000000    -2.001000000    -2.446000000
H     2.997000000    -2.376000000    -2.914000000
H     4.474000000    -2.583000000    -2.656000000
O    -1.641000000     6.588000000     1.246000000
H    -0.896000000     6.068000000     0.944000000
H    -1.447000000     7.478000000     0.952000000
O    -4.143000000     0.122000000    -3.017000000
H    -3.950000000     0.353000000    -3.926000000
H    -3.667000000    -0.696000000    -2.872000000
O    -0.407000000     3.465000000    -0.903000000
H    -0.880000000     3.390000000    -1.732000000
H    -0.053000000     2.590000000    -0.749000000
O    -4.202000000     5.090000000     0.727000000
H    -3.590000000     5.805000000     0.551000000
H    -3.643000000     4.345000000     0.949000000
O     3.679000000    -3.241000000     0.625000000
H     3.745000000    -3.510000000    -0.291000000
H     2.784000000    -2.913000000     0.714000000
O    -1.164000000     0.915000000     6.530000000
H    -0.363000000     0.535000000     6.891000000
H    -0.865000000     1.682000000     6.042000000
O     4.905000000    -0.807000000    -5.246000000
H     4.698000000    -1.304000000    -4.455000000
H     4.382000000    -1.220000000    -5.933000000
O     2.624000000    -5.399000000    -1.813000000
H     2.583000000    -4.633000000    -2.386000000
H     3.491000000    -5.349000000    -1.409000000
O    -1.031000000     1.678000000    -4.465000000
H    -1.501000000     2.109000000    -3.751000000
H    -0.363000000     2.311000000    -4.729000000
O    -0.096000000     3.078000000     5.254000000
H    -0.104000000     3.869000000     5.792000000
H     0.688000000     3.165000000     4.712000000
O     2.479000000     2.890000000    -3.036000000
H     2.346000000     2.676000000    -3.960000000
H     3.075000000     2.212000000    -2.717000000
O    -2.907000000    -4.152000000     1.172000000
H    -3.258000000    -4.330000000     2.045000000
H    -3.336000000    -3.340000000     0.902000000
O     5.325000000    -0.621000000     2.993000000
H     5.163000000    -0.078000000     2.222000000
H     4.452000000    -0.857000000     3.307000000
O     0.972000000     5.322000000     1.617000000
H     1.084000000     5.048000000     0.706000000
H     1.646000000     4.841000000     2.096000000
O    -7.149000000    -0.052000000     0.738000000
H    -7.074000000     0.395000000    -0.106000000
H    -6.695000000    -0.884000000     0.610000000
O     4.396000000     0.835000000    -1.928000000
H     4.077000000    -0.015000000    -2.231000000
H     4.513000000     0.726000000    -0.984000000
O    -0.611000000    -3.748000000     3.729000000
H    -1.201000000    -3.089000000     3.364000000
H    -1.189000000    -4.457000000     4.011000000
O    -6.584000000    -2.623000000    -2.237000000
H    -6.185000000    -3.202000000    -2.886000000
H    -7.407000000    -3.052000000    -2.006000000
O    -3.287000000     0.687000000    -5.837000000
H    -2.414000000     1.001000000    -5.602000000
H    -3.794000000     1.484000000    -5.994000000
O    -6.330000000     1.093000000    -1.724000000
H    -5.706000000     0.501000000    -2.146000000
H    -6.020000000     1.969000000    -1.952000000
O    -3.965000000    -4.130000000    -2.828000000
H    -3.864000000    -4.657000000    -2.035000000
H    -3.218000000    -3.532000000    -2.814000000
O    -5.533000000    -3.803000000    -5.407000000
H    -4.729000000    -4.057000000    -4.953000000
H    -5.328000000    -2.955000000    -5.800000000
O     1.750000000    -3.374000000    -3.632000000
H     1.466000000    -3.850000000    -4.413000000
H     0.951000000    -2.971000000    -3.293000000
O    -4.807000000    -1.631000000    -6.497000000
H    -5.531000000    -1.341000000    -7.051000000
H    -4.455000000    -0.825000000    -6.120000000
O     1.193000000    -0.277000000     6.987000000
H     1.409000000    -1.199000000     6.848000000
H     1.855000000     0.034000000     7.604000000
O     5.124000000     1.327000000     0.879000000
H     4.950000000     2.175000000     1.287000000
H     5.983000000     1.431000000     0.469000000
O    -0.103000000     6.638000000     3.951000000
H    -0.160000000     6.221000000     3.091000000
H    -0.809000000     7.284000000     3.951000000
O     2.306000000     2.460000000     7.542000000
H     1.921000000     2.613000000     8.405000000
H     1.600000000     2.658000000     6.927000000
O     2.638000000    -1.039000000    -6.719000000
H     2.662000000    -0.232000000    -7.233000000
H     2.166000000    -0.801000000    -5.921000000
O     0.648000000    -0.303000000    -4.907000000
H     0.221000000    -1.057000000    -4.499000000
H     0.075000000     0.436000000    -4.701000000
O     2.837000000     4.183000000    -0.777000000
H     2.662000000     3.520000000    -1.446000000
H     3.332000000     4.861000000    -1.236000000
O    -3.705000000     1.256000000     3.395000000
H    -3.307000000     0.978000000     4.220000000
H    -3.337000000     2.125000000     3.232000000
O    -1.032000000    -4.937000000    -2.986000000
H    -1.037000000    -4.032000000    -3.298000000
H    -0.781000000    -4.870000000    -2.064000000
O    -0.213000000    -5.193000000    -0.319000000
H    -1.032000000    -4.962000000     0.120000000
H     0.375000000    -4.462000000    -0.129000000
O     0.205000000    -3.340000000    -7.992000000
H    -0.186000000    -2.468000000    -8.038000000
H     0.390000000    -3.472000000    -7.062000000
O    -4.280000000    -2.069000000    -0.426000000
H    -3.577000000    -1.854000000    -1.039000000
H    -5.076000000    -2.050000000    -0.958000000
O    -2.047000000    -4.853000000    -6.358000000
H    -2.632000000    -5.431000000    -5.868000000
H    -2.330000000    -3.970000000    -6.122000000
O     4.292000000    -0.797000000     5.725000000
H     4.057000000    -1.713000000     5.573000000
H     5.248000000    -0.800000000     5.768000000
O     0.648000000    -2.749000000     1.180000000
H     0.469000000    -3.006000000     2.084000000
H     0.510000000    -1.801000000     1.169000000
O     2.480000000     3.498000000     3.724000000
H     2.946000000     3.310000000     2.908000000
H     3.170000000     3.733000000     4.344000000
O     0.596000000    -4.699000000    -5.577000000
H    -0.339000000    -4.869000000    -5.690000000
H     1.020000000    -5.523000000    -5.816000000
O    -2.230000000    -2.149000000    -5.312000000
H    -1.861000000    -2.075000000    -4.432000000
H    -2.314000000    -1.244000000    -5.614000000
O    -5.034000000    -1.467000000     2.118000000
H    -4.648000000    -1.298000000     1.258000000
H    -4.618000000    -0.829000000     2.697000000
O    -2.189000000    -1.756000000     3.091000000
H    -2.476000000    -1.222000000     3.832000000
H    -2.940000000    -1.764000000     2.498000000
