144
-2810.03689
O     3.674000000     5.018000000     1.145000000
H     3.147000000     4.584000000     0.474000000
H     4.104000000     5.737000000     0.683000000
O    -1.502000000    -1.375000000    -7.749000000
H    -2.405000000    -1.177000000    -7.499000000
H    -1.019000000    -1.374000000    -6.923000000
O    -3.662000000     3.263000000     3.671000000
H    -2.984000000     3.302000000     4.346000000
H    -4.480000000     3.412000000     4.144000000
O     4.789000000    -3.563000000    -2.550000000
H     3.858000000    -3.514000000    -2.768000000
H     5.109000000    -4.324000000    -3.034000000
O    -4.353000000     0.235000000    -2.549000000
H    -3.684000000     0.554000000    -3.154000000
H    -3.917000000    -0.457000000    -2.052000000
O    -0.602000000     2.488000000    -1.264000000
H    -1.035000000     3.030000000    -0.604000000
H    -0.441000000     1.655000000    -0.821000000
O     2.636000000    -3.405000000     2.215000000
H     3.562000000    -3.219000000     2.369000000
H     2.170000000    -2.732000000     2.711000000
O    -1.371000000     3.535000000     5.501000000
H    -1.684000000     2.655000000     5.713000000
H    -0.426000000     3.432000000     5.387000000
O    -1.785000000     3.963000000     0.624000000
H    -1.677000000     4.828000000     1.018000000
H    -2.256000000     3.455000000     1.285000000
O     1.580000000    -1.439000000     3.492000000
H     1.356000000    -0.524000000     3.663000000
H     1.375000000    -1.892000000     4.310000000
O     4.165000000     4.549000000    -2.415000000
H     3.818000000     3.673000000    -2.249000000
H     3.933000000     4.730000000    -3.326000000
O     4.965000000    -0.479000000    -3.158000000
H     4.819000000    -0.330000000    -2.223000000
H     5.080000000    -1.426000000    -3.233000000
O    -0.391000000     1.975000000    -4.210000000
H    -0.916000000     2.730000000    -4.474000000
H    -0.385000000     2.010000000    -3.253000000
O     1.352000000     3.349000000     6.250000000
H     1.548000000     2.458000000     5.959000000
H     2.188000000     3.810000000     6.190000000
O     4.492000000     1.675000000    -4.647000000
H     3.840000000     2.110000000    -4.098000000
H     4.650000000     0.837000000    -4.213000000
O     5.406000000    -3.172000000     2.650000000
H     5.731000000    -2.330000000     2.969000000
H     5.742000000    -3.235000000     1.755000000
O     3.008000000     1.985000000    -2.353000000
H     2.176000000     1.873000000    -1.893000000
H     3.647000000     1.528000000    -1.806000000
O    -3.700000000    -5.346000000     0.694000000
H    -2.823000000    -5.463000000     0.327000000
H    -3.690000000    -4.462000000     1.061000000
O     4.441000000    -0.360000000     2.942000000
H     4.568000000     0.575000000     2.781000000
H     3.653000000    -0.583000000     2.446000000
O     5.113000000     0.240000000    -0.422000000
H     5.223000000    -0.535000000     0.129000000
H     5.942000000     0.711000000    -0.343000000
O    -2.828000000    -3.320000000     5.188000000
H    -3.206000000    -2.851000000     5.933000000
H    -3.104000000    -2.815000000     4.423000000
O    -6.679000000    -1.600000000    -1.345000000
H    -5.742000000    -1.454000000    -1.210000000
H    -6.740000000    -2.512000000    -1.630000000
O    -4.147000000    -0.934000000    -7.152000000
H    -4.774000000    -1.329000000    -7.757000000
H    -4.324000000    -1.359000000    -6.312000000
O    -3.129000000     1.279000000    -5.365000000
H    -2.384000000     1.795000000    -5.675000000
H    -3.208000000     0.566000000    -5.999000000
O    -5.183000000     2.689000000    -0.100000000
H    -5.388000000     1.861000000    -0.534000000
H    -5.245000000     3.345000000    -0.795000000
O    -5.965000000    -4.403000000    -1.770000000
H    -6.392000000    -4.117000000    -0.962000000
H    -5.092000000    -4.682000000    -1.493000000
O     0.990000000    -3.403000000    -3.578000000
H     0.089000000    -3.198000000    -3.327000000
H     0.965000000    -4.328000000    -3.824000000
O    -6.228000000    -1.113000000    -4.282000000
H    -6.465000000    -0.639000000    -5.080000000
H    -5.988000000    -0.428000000    -3.659000000
O     3.058000000     0.991000000     5.048000000
H     3.972000000     0.712000000     5.109000000
H     2.640000000     0.611000000     5.821000000
O    -2.148000000     0.802000000     5.877000000
H    -3.096000000     0.687000000     5.938000000
H    -1.878000000     0.202000000     5.181000000
O     5.078000000     2.794000000     2.336000000
H     4.660000000     3.460000000     1.791000000
H     5.962000000     3.128000000     2.487000000
O    -3.686000000    -6.517000000    -4.445000000
H    -4.530000000    -6.120000000    -4.658000000
H    -3.336000000    -5.971000000    -3.741000000
O    -4.813000000    -4.029000000    -6.780000000
H    -5.300000000    -4.592000000    -6.178000000
H    -4.236000000    -3.516000000    -6.214000000
O     3.203000000    -3.009000000    -5.157000000
H     2.931000000    -2.231000000    -5.644000000
H     2.567000000    -3.080000000    -4.445000000
O    -0.700000000    -0.965000000    -5.185000000
H    -0.910000000    -1.334000000    -4.327000000
H    -0.661000000    -0.020000000    -5.036000000
O     1.754000000     4.315000000    -0.708000000
H     1.688000000     4.988000000    -1.385000000
H     0.996000000     3.749000000    -0.857000000
O    -4.513000000     1.070000000     2.616000000
H    -5.444000000     1.245000000     2.484000000
H    -4.156000000     1.901000000     2.930000000
O    -2.534000000    -4.914000000    -2.514000000
H    -2.406000000    -3.966000000    -2.555000000
H    -1.943000000    -5.204000000    -1.818000000
O    -1.071000000    -5.268000000    -0.377000000
H    -0.472000000    -5.994000000    -0.554000000
H    -0.655000000    -4.782000000     0.335000000
O    -4.174000000    -2.571000000     0.746000000
H    -3.726000000    -2.193000000    -0.011000000
H    -5.019000000    -2.861000000     0.403000000
O     5.604000000    -0.741000000     5.665000000
H     5.455000000    -0.881000000     4.730000000
H     6.556000000    -0.775000000     5.763000000
O     0.149000000    -4.584000000     1.894000000
H    -0.145000000    -4.570000000     2.805000000
H     1.079000000    -4.362000000     1.939000000
O     1.879000000    -0.668000000    -6.428000000
H     1.132000000    -0.964000000    -5.908000000
H     1.937000000     0.271000000    -6.251000000
O     3.579000000     4.428000000     4.660000000
H     3.738000000     4.143000000     3.760000000
H     4.273000000     4.009000000     5.170000000
O    -0.868000000    -3.819000000    -6.385000000
H    -0.419000000    -3.762000000    -5.542000000
H    -1.795000000    -3.890000000    -6.158000000
O    -3.611000000    -2.375000000    -4.773000000
H    -2.788000000    -2.096000000    -4.372000000
H    -4.290000000    -1.980000000    -4.226000000
O    -5.810000000    -2.654000000     3.091000000
H    -6.033000000    -1.767000000     3.375000000
H    -5.001000000    -2.549000000     2.591000000
O    -2.857000000    -1.048000000     3.436000000
H    -2.629000000    -1.410000000     2.580000000
H    -3.412000000    -0.294000000     3.237000000
