144
-2822.56596
O     5.957000000    -2.433000000    -2.700000000
H     6.744000000    -2.351000000    -2.161000000
H     5.256000000    -2.072000000    -2.156000000
O     1.236000000     5.498000000     2.417000000
H     1.490000000     5.601000000     1.500000000
H     2.056000000     5.303000000     2.872000000
O     3.319000000     0.793000000     4.015000000
H     2.455000000     0.449000000     3.789000000
H     3.928000000     0.101000000     3.758000000
O    -2.941000000     4.699000000     0.603000000
H    -2.358000000     4.460000000    -0.118000000
H    -2.775000000     5.630000000     0.747000000
O    -1.351000000     6.235000000     2.933000000
H    -0.474000000     5.851000000     2.919000000
H    -1.448000000     6.642000000     2.072000000
O    -3.080000000    -3.794000000    -2.502000000
H    -3.146000000    -3.040000000    -3.088000000
H    -2.476000000    -3.512000000    -1.815000000
O    -1.729000000     1.229000000    -2.286000000
H    -1.052000000     1.557000000    -2.877000000
H    -1.256000000     0.993000000    -1.488000000
O    -4.008000000     3.420000000    -2.211000000
H    -4.122000000     2.728000000    -1.559000000
H    -4.788000000     3.359000000    -2.763000000
O    -3.013000000    -5.547000000    -4.656000000
H    -3.160000000    -4.971000000    -5.406000000
H    -3.235000000    -5.011000000    -3.895000000
O     1.072000000    -6.184000000     0.533000000
H     1.786000000    -6.623000000     0.072000000
H     0.564000000    -5.761000000    -0.160000000
O     5.427000000     1.018000000    -1.246000000
H     5.255000000     1.151000000    -0.314000000
H     4.721000000     0.443000000    -1.541000000
O    -1.507000000     4.601000000    -2.483000000
H    -1.076000000     3.816000000    -2.146000000
H    -2.437000000     4.375000000    -2.502000000
O    -0.440000000     3.659000000     5.692000000
H    -0.889000000     3.851000000     6.515000000
H    -1.140000000     3.412000000     5.088000000
O     2.636000000     5.451000000    -0.134000000
H     2.512000000     5.574000000    -1.075000000
H     3.577000000     5.306000000    -0.033000000
O    -0.658000000    -4.495000000     4.945000000
H    -1.232000000    -3.978000000     4.379000000
H    -1.102000000    -4.504000000     5.793000000
O     1.538000000    -4.712000000    -4.984000000
H     1.810000000    -5.629000000    -4.938000000
H     1.261000000    -4.590000000    -5.892000000
O    -1.181000000     7.345000000    -2.528000000
H    -1.237000000     6.395000000    -2.427000000
H    -1.395000000     7.501000000    -3.448000000
O     1.411000000     1.676000000     6.055000000
H     0.735000000     2.281000000     5.747000000
H     1.925000000     1.474000000     5.274000000
O     1.598000000     5.858000000    -2.755000000
H     0.642000000     5.908000000    -2.782000000
H     1.831000000     5.314000000    -3.507000000
O    -4.530000000    -0.233000000     3.404000000
H    -4.530000000     0.659000000     3.056000000
H    -5.453000000    -0.484000000     3.418000000
O    -3.685000000     2.674000000     2.255000000
H    -3.919000000     2.335000000     1.391000000
H    -3.595000000     3.618000000     2.126000000
O     3.717000000     4.732000000     3.428000000
H     4.163000000     3.896000000     3.295000000
H     3.576000000     4.780000000     4.374000000
O    -2.846000000    -5.827000000    -0.287000000
H    -2.388000000    -6.308000000    -0.976000000
H    -2.494000000    -4.938000000    -0.340000000
O    -4.355000000    -2.738000000     1.880000000
H    -4.353000000    -1.994000000     2.483000000
H    -3.560000000    -3.224000000     2.097000000
O    -3.142000000     2.453000000     4.918000000
H    -2.930000000     1.553000000     5.166000000
H    -3.558000000     2.373000000     4.060000000
O     4.439000000     0.153000000     1.294000000
H     4.014000000     0.948000000     1.616000000
H     5.022000000    -0.113000000     2.006000000
O    -1.675000000    -3.927000000     1.977000000
H    -1.952000000    -4.835000000     1.851000000
H    -1.404000000    -3.636000000     1.107000000
O    -1.907000000    -1.414000000    -5.195000000
H    -1.304000000    -1.980000000    -4.713000000
H    -2.572000000    -1.170000000    -4.552000000
O    -3.575000000    -0.842000000    -3.220000000
H    -4.354000000    -0.633000000    -2.706000000
H    -2.856000000    -0.424000000    -2.746000000
O    -3.844000000     1.446000000    -0.435000000
H    -4.427000000     0.780000000    -0.072000000
H    -2.986000000     1.022000000    -0.468000000
O    -2.047000000     7.429000000     0.515000000
H    -1.099000000     7.546000000     0.456000000
H    -2.339000000     7.382000000    -0.396000000
O     2.468000000    -5.022000000     2.747000000
H     3.421000000    -4.983000000     2.663000000
H     2.159000000    -5.242000000     1.868000000
O    -6.710000000    -3.315000000     0.804000000
H    -5.920000000    -3.004000000     1.247000000
H    -7.429000000    -3.031000000     1.369000000
O    -4.383000000    -1.309000000    -0.393000000
H    -5.042000000    -1.438000000    -1.076000000
H    -4.456000000    -2.087000000     0.160000000
O     4.246000000     2.977000000     1.309000000
H     4.805000000     3.543000000     0.776000000
H     3.466000000     3.505000000     1.482000000
O     4.132000000    -1.444000000    -0.930000000
H     4.104000000    -1.006000000    -0.080000000
H     3.861000000    -2.344000000    -0.746000000
O     2.288000000     3.675000000    -4.616000000
H     3.230000000     3.716000000    -4.449000000
H     2.209000000     3.769000000    -5.565000000
O    -0.274000000    -3.096000000    -3.825000000
H     0.105000000    -3.181000000    -2.950000000
H     0.269000000    -3.660000000    -4.376000000
O     3.020000000    -4.300000000    -0.500000000
H     3.222000000    -5.101000000    -0.984000000
H     2.125000000    -4.082000000    -0.759000000
O    -0.903000000    -6.530000000     2.935000000
H    -0.840000000    -5.903000000     3.655000000
H    -0.111000000    -6.382000000     2.418000000
O     0.338000000     1.955000000    -3.828000000
H     1.019000000     2.581000000    -4.075000000
H     0.371000000     1.285000000    -4.510000000
O    -2.049000000    -0.146000000     4.683000000
H    -2.311000000    -0.708000000     5.412000000
H    -2.698000000    -0.321000000     4.001000000
O     0.619000000     7.827000000     0.311000000
H     1.369000000     8.402000000     0.465000000
H     0.964000000     7.127000000    -0.243000000
O    -0.988000000    -8.852000000    -1.978000000
H    -0.464000000    -9.311000000    -2.635000000
H    -0.569000000    -7.996000000    -1.892000000
O     0.092000000    -6.370000000    -2.265000000
H    -0.138000000    -5.470000000    -2.034000000
H     0.848000000    -6.282000000    -2.845000000
O     0.257000000    -0.077000000    -5.860000000
H    -0.596000000    -0.487000000    -5.719000000
H     0.657000000    -0.591000000    -6.562000000
O    -4.060000000    -7.660000000     1.434000000
H    -3.398000000    -7.806000000     2.110000000
H    -3.721000000    -6.925000000     0.923000000
O     0.618000000    -0.394000000     3.744000000
H    -0.123000000    -0.079000000     4.262000000
H     0.225000000    -0.710000000     2.931000000
