144
-2774.41261
O     0.895000000     7.963000000    -0.644000000
H     1.403000000     7.152000000    -0.655000000
H     1.543000000     8.653000000    -0.789000000
O    -3.892000000    -6.056000000    -0.328000000
H    -3.814000000    -6.145000000     0.622000000
H    -2.993000000    -6.127000000    -0.650000000
O    -6.007000000     0.032000000    -1.291000000
H    -6.052000000    -0.446000000    -0.463000000
H    -6.665000000    -0.389000000    -1.845000000
O     2.707000000     5.789000000     1.878000000
H     3.143000000     6.109000000     1.088000000
H     3.389000000     5.801000000     2.549000000
O    -4.130000000     4.482000000    -1.133000000
H    -3.740000000     3.608000000    -1.121000000
H    -3.436000000     5.058000000    -0.813000000
O     1.283000000     5.109000000     4.096000000
H     1.203000000     4.224000000     3.740000000
H     1.722000000     5.606000000     3.406000000
O    -2.172000000    -4.401000000    -4.959000000
H    -1.246000000    -4.184000000    -4.851000000
H    -2.484000000    -4.566000000    -4.069000000
O    -0.007000000    -0.581000000    -3.108000000
H     0.411000000     0.241000000    -3.364000000
H    -0.103000000    -0.515000000    -2.158000000
O    -2.546000000     2.226000000    -1.922000000
H    -2.340000000     1.526000000    -1.302000000
H    -3.088000000     1.803000000    -2.588000000
O    -2.258000000     6.742000000     3.002000000
H    -2.156000000     6.871000000     2.059000000
H    -2.727000000     5.912000000     3.080000000
O     1.314000000    -7.106000000     0.075000000
H     2.120000000    -6.738000000    -0.285000000
H     0.613000000    -6.645000000    -0.386000000
O    -0.982000000     2.918000000    -4.292000000
H    -0.179000000     2.591000000    -3.886000000
H    -1.624000000     2.925000000    -3.582000000
O     1.528000000     2.191000000     3.574000000
H     1.065000000     1.970000000     4.382000000
H     1.252000000     1.521000000     2.949000000
O     5.331000000    -4.516000000     0.459000000
H     5.861000000    -3.782000000     0.772000000
H     5.905000000    -4.983000000    -0.148000000
O     2.427000000    -5.530000000    -4.303000000
H     2.985000000    -6.257000000    -4.030000000
H     3.017000000    -4.937000000    -4.769000000
O    -1.166000000     5.686000000    -2.936000000
H    -1.742000000     5.155000000    -3.486000000
H    -0.385000000     5.826000000    -3.471000000
O     4.153000000     2.972000000     4.762000000
H     3.375000000     2.553000000     4.394000000
H     4.864000000     2.356000000     4.584000000
O     1.960000000     5.471000000    -1.298000000
H     2.032000000     5.815000000    -2.189000000
H     1.871000000     4.525000000    -1.414000000
O    -5.854000000     0.479000000     2.496000000
H    -6.785000000     0.699000000     2.540000000
H    -5.834000000    -0.406000000     2.133000000
O    -4.081000000     4.761000000     3.124000000
H    -4.759000000     4.916000000     2.467000000
H    -4.524000000     4.269000000     3.815000000
O    -1.257000000    -6.083000000    -1.079000000
H    -1.101000000    -6.227000000    -2.012000000
H    -1.170000000    -5.136000000    -0.964000000
O    -4.482000000    -3.883000000     1.605000000
H    -3.874000000    -4.118000000     2.306000000
H    -4.189000000    -4.396000000     0.851000000
O    -3.375000000     1.620000000     2.924000000
H    -4.177000000     1.102000000     2.983000000
H    -3.678000000     2.528000000     2.892000000
O     5.928000000    -0.551000000    -0.287000000
H     6.325000000     0.319000000    -0.259000000
H     6.085000000    -0.914000000     0.585000000
O    -1.320000000    -4.383000000     1.977000000
H    -0.606000000    -4.310000000     1.343000000
H    -1.689000000    -3.501000000     2.024000000
O    -0.003000000    -2.683000000    -5.956000000
H     0.649000000    -2.433000000    -5.301000000
H    -0.819000000    -2.292000000    -5.643000000
O    -1.959000000    -0.847000000    -4.762000000
H    -2.712000000    -0.364000000    -4.421000000
H    -1.322000000    -0.835000000    -4.048000000
O    -3.760000000    -0.997000000    -2.465000000
H    -4.588000000    -0.701000000    -2.086000000
H    -3.743000000    -1.939000000    -2.297000000
O    -2.361000000     6.527000000    -0.434000000
H    -1.608000000     6.155000000     0.027000000
H    -2.200000000     6.326000000    -1.356000000
O     2.954000000    -4.784000000     1.627000000
H     3.687000000    -4.524000000     1.068000000
H     2.205000000    -4.830000000     1.033000000
O    -6.045000000    -1.700000000     0.781000000
H    -5.392000000    -2.331000000     1.084000000
H    -6.886000000    -2.105000000     0.996000000
O     3.688000000    -6.686000000    -1.487000000
H     3.817000000    -7.203000000    -2.282000000
H     4.574000000    -6.475000000    -1.193000000
O    -3.576000000    -3.739000000    -2.020000000
H    -3.702000000    -4.522000000    -1.484000000
H    -2.673000000    -3.473000000    -1.845000000
O     4.601000000     2.946000000     1.876000000
H     5.250000000     3.152000000     1.204000000
H     3.898000000     3.580000000     1.733000000
O     5.145000000    -1.724000000    -2.474000000
H     5.378000000    -1.310000000    -1.643000000
H     4.472000000    -2.364000000    -2.242000000
O     3.760000000     2.795000000    -2.477000000
H     4.535000000     3.086000000    -1.995000000
H     3.898000000     3.115000000    -3.368000000
O    -1.862000000     0.644000000     5.069000000
H    -1.051000000     1.068000000     5.351000000
H    -2.095000000     1.090000000     4.254000000
O     4.438000000    -1.683000000     3.103000000
H     3.654000000    -1.288000000     3.485000000
H     4.531000000    -2.520000000     3.557000000
O     1.865000000    -2.260000000    -4.039000000
H     1.874000000    -2.631000000    -3.156000000
H     1.384000000    -1.438000000    -3.948000000
O     5.329000000     0.223000000    -4.698000000
H     5.901000000     0.900000000    -4.337000000
H     4.852000000    -0.116000000    -3.941000000
O     3.235000000    -3.572000000    -1.822000000
H     3.467000000    -4.500000000    -1.853000000
H     2.402000000    -3.549000000    -1.351000000
O    -0.676000000    -7.937000000     1.800000000
H    -0.874000000    -7.272000000     2.459000000
H    -0.070000000    -7.506000000     1.198000000
O     1.453000000     2.122000000    -3.708000000
H     2.188000000     2.259000000    -3.110000000
H     1.708000000     1.361000000    -4.229000000
O    -2.013000000    -1.981000000     2.960000000
H    -2.153000000    -2.136000000     3.894000000
H    -2.518000000    -1.190000000     2.770000000
O     0.011000000     5.602000000     0.893000000
H     0.643000000     5.415000000     1.588000000
H     0.522000000     5.554000000     0.085000000
O     0.024000000    -4.888000000    -3.202000000
H     0.154000000    -4.510000000    -2.332000000
H     0.910000000    -5.016000000    -3.542000000
O     5.384000000     0.788000000     3.535000000
H     5.167000000     1.411000000     2.841000000
H     5.053000000    -0.051000000     3.214000000
O     0.416000000    -0.517000000     3.095000000
H    -0.266000000    -1.181000000     3.198000000
H     0.680000000    -0.585000000     2.178000000
