144
-2815.04574
O     0.482000000    -6.541000000    -3.206000000
H     0.642000000    -6.252000000    -2.308000000
H    -0.197000000    -5.949000000    -3.530000000
O    -3.604000000    -1.470000000     0.068000000
H    -4.303000000    -1.420000000    -0.585000000
H    -3.127000000    -0.646000000    -0.028000000
O    -0.340000000     7.555000000    -0.331000000
H     0.303000000     8.231000000    -0.544000000
H     0.096000000     7.007000000     0.322000000
O     3.053000000    -7.467000000     1.151000000
H     2.216000000    -7.067000000     0.915000000
H     3.102000000    -7.377000000     2.103000000
O     0.814000000     6.204000000     1.597000000
H     0.389000000     5.739000000     2.317000000
H     1.749000000     6.050000000     1.732000000
O    -2.547000000    -0.750000000    -4.441000000
H    -2.943000000    -0.370000000    -3.657000000
H    -2.152000000    -0.006000000    -4.895000000
O     1.263000000    -1.939000000     4.759000000
H     0.985000000    -2.508000000     4.041000000
H     2.212000000    -1.868000000     4.653000000
O    -3.412000000     2.686000000    -2.770000000
H    -3.471000000     3.014000000    -1.873000000
H    -4.011000000     1.940000000    -2.792000000
O    -2.389000000     5.634000000    -0.773000000
H    -1.505000000     5.423000000    -1.074000000
H    -2.396000000     6.589000000    -0.702000000
O    -2.167000000     6.952000000    -4.023000000
H    -2.531000000     6.506000000    -4.787000000
H    -1.341000000     6.499000000    -3.851000000
O    -3.254000000    -3.790000000     5.192000000
H    -3.146000000    -3.457000000     4.301000000
H    -3.748000000    -3.107000000     5.645000000
O     3.287000000     3.436000000     4.479000000
H     3.258000000     2.940000000     5.297000000
H     3.175000000     2.776000000     3.794000000
O    -0.719000000     2.736000000     6.188000000
H    -0.686000000     3.657000000     6.444000000
H    -1.518000000     2.403000000     6.598000000
O    -2.473000000    -0.846000000     6.183000000
H    -2.590000000    -0.056000000     6.712000000
H    -1.974000000    -0.551000000     5.421000000
O     3.191000000    -3.769000000     0.842000000
H     3.024000000    -3.102000000     0.176000000
H     2.378000000    -4.272000000     0.886000000
O    -1.474000000     4.194000000    -4.116000000
H    -0.842000000     4.355000000    -3.416000000
H    -2.239000000     3.832000000    -3.670000000
O     3.194000000    -6.022000000     3.773000000
H     3.542000000    -5.137000000     3.661000000
H     3.967000000    -6.587000000     3.763000000
O     0.345000000    -1.302000000    -4.727000000
H    -0.535000000    -1.383000000    -4.358000000
H     0.825000000    -2.048000000    -4.367000000
O     3.723000000     5.370000000     1.336000000
H     4.161000000     4.552000000     1.573000000
H     4.307000000     6.057000000     1.658000000
O    -4.786000000    -4.932000000    -0.396000000
H    -4.902000000    -4.024000000    -0.676000000
H    -3.927000000    -4.945000000     0.026000000
O     0.565000000    -5.041000000     3.528000000
H     1.479000000    -5.316000000     3.449000000
H     0.396000000    -4.540000000     2.731000000
O    -0.073000000     5.410000000    -2.374000000
H     0.215000000     6.185000000    -2.856000000
H     0.590000000     5.291000000    -1.694000000
O    -5.089000000     1.309000000     0.567000000
H    -5.893000000     1.385000000     0.053000000
H    -4.687000000     2.176000000     0.511000000
O     1.020000000    -6.283000000    -0.392000000
H     0.773000000    -5.359000000    -0.430000000
H     0.272000000    -6.714000000     0.023000000
O     2.331000000     2.566000000     6.821000000
H     2.070000000     2.978000000     7.645000000
H     1.505000000     2.329000000     6.399000000
O    -4.106000000     3.640000000     0.156000000
H    -3.565000000     4.395000000    -0.073000000
H    -4.994000000     3.897000000    -0.094000000
O    -2.183000000    -5.154000000     0.860000000
H    -1.340000000    -4.701000000     0.837000000
H    -2.167000000    -5.646000000     1.681000000
O     0.272000000    -2.351000000    -7.240000000
H     0.215000000    -1.924000000    -6.385000000
H     0.601000000    -1.670000000    -7.827000000
O     2.679000000    -0.211000000    -4.403000000
H     3.363000000    -0.870000000    -4.522000000
H     1.864000000    -0.675000000    -4.596000000
O    -1.620000000    -4.908000000    -4.528000000
H    -2.330000000    -4.309000000    -4.296000000
H    -1.986000000    -5.455000000    -5.224000000
O    -1.549000000     1.604000000    -5.283000000
H    -1.466000000     2.258000000    -5.977000000
H    -1.656000000     2.117000000    -4.482000000
O    -3.152000000    -2.938000000     2.538000000
H    -3.395000000    -2.190000000     1.992000000
H    -2.590000000    -3.472000000     1.976000000
O     4.101000000     1.144000000     0.203000000
H     3.991000000     1.239000000    -0.743000000
H     4.760000000     1.798000000     0.435000000
O    -2.639000000    -7.547000000    -1.894000000
H    -2.599000000    -6.974000000    -1.128000000
H    -1.723000000    -7.722000000    -2.111000000
O     3.078000000    -1.488000000    -1.325000000
H     3.310000000    -1.610000000    -2.246000000
H     2.465000000    -0.753000000    -1.328000000
O    -2.877000000     4.106000000     2.477000000
H    -3.070000000     5.031000000     2.326000000
H    -3.153000000     3.669000000     1.671000000
O    -2.150000000    -2.905000000    -2.461000000
H    -1.531000000    -3.530000000    -2.086000000
H    -2.061000000    -2.123000000    -1.916000000
O     3.569000000     4.082000000    -3.774000000
H     3.059000000     4.661000000    -4.340000000
H     4.479000000     4.245000000    -4.022000000
O     3.362000000     1.394000000    -2.324000000
H     3.180000000     1.030000000    -3.190000000
H     3.285000000     2.341000000    -2.441000000
O     4.033000000    -2.568000000    -3.991000000
H     3.164000000    -2.967000000    -3.931000000
H     4.619000000    -3.209000000    -3.589000000
O     2.561000000     6.146000000     4.224000000
H     2.477000000     5.197000000     4.135000000
H     3.491000000     6.289000000     4.401000000
O     2.920000000     6.196000000    -1.180000000
H     3.148000000     5.833000000    -0.324000000
H     3.409000000     5.660000000    -1.805000000
O    -1.188000000    -8.141000000     0.927000000
H    -2.102000000    -8.282000000     0.682000000
H    -1.146000000    -8.385000000     1.851000000
O    -3.450000000     1.570000000     4.443000000
H    -3.217000000     1.554000000     5.371000000
H    -3.091000000     2.397000000     4.120000000
O    -0.481000000     4.455000000     3.530000000
H    -1.276000000     4.324000000     3.012000000
H    -0.563000000     3.834000000     4.254000000
O     1.421000000    -3.504000000    -3.409000000
H     1.041000000    -3.779000000    -2.574000000
H     1.109000000    -4.155000000    -4.039000000
O    -1.931000000    -5.923000000     3.600000000
H    -2.447000000    -5.397000000     4.212000000
H    -1.039000000    -5.590000000     3.691000000
O     2.909000000     1.417000000     2.554000000
H     2.887000000     0.471000000     2.696000000
H     2.876000000     1.517000000     1.602000000
