144
-2837.98622
O    -5.381000000    -3.978000000    -3.062000000
H    -6.049000000    -4.016000000    -3.746000000
H    -4.619000000    -4.410000000    -3.447000000
O    -4.111000000     2.098000000     0.984000000
H    -4.716000000     1.487000000     0.563000000
H    -3.274000000     1.633000000     1.000000000
O     4.000000000    -2.542000000     2.238000000
H     3.482000000    -2.452000000     3.037000000
H     3.854000000    -3.446000000     1.957000000
O    -5.004000000     0.661000000    -5.540000000
H    -5.643000000     1.123000000    -4.998000000
H    -4.672000000    -0.038000000    -4.976000000
O     4.144000000     5.765000000    -0.878000000
H     4.710000000     5.068000000    -0.546000000
H     3.491000000     5.310000000    -1.409000000
O     0.671000000     5.501000000     1.316000000
H     1.571000000     5.828000000     1.328000000
H     0.237000000     6.021000000     0.640000000
O     3.743000000    -0.271000000    -3.195000000
H     3.323000000    -0.956000000    -2.675000000
H     3.933000000    -0.689000000    -4.034000000
O    -2.680000000    -3.564000000     1.662000000
H    -3.397000000    -2.953000000     1.491000000
H    -2.290000000    -3.721000000     0.802000000
O     4.388000000    -1.517000000    -0.413000000
H     3.973000000    -2.284000000    -0.809000000
H     4.122000000    -1.549000000     0.506000000
O    -0.671000000     1.650000000    -5.428000000
H    -0.291000000     2.503000000    -5.639000000
H    -0.613000000     1.592000000    -4.474000000
O     4.725000000     1.106000000     5.061000000
H     3.876000000     0.720000000     5.276000000
H     4.586000000     2.050000000     5.138000000
O    -0.949000000    -0.925000000    -6.013000000
H    -0.743000000     0.000000000    -6.150000000
H    -1.298000000    -0.963000000    -5.122000000
O     3.005000000     6.932000000     1.621000000
H     3.241000000     7.859000000     1.643000000
H     3.446000000     6.591000000     0.843000000
O     0.852000000    -4.839000000    -2.692000000
H     0.613000000    -5.618000000    -3.193000000
H     0.015000000    -4.436000000    -2.461000000
O    -4.188000000    -1.111000000    -3.550000000
H    -4.439000000    -1.991000000    -3.269000000
H    -3.236000000    -1.091000000    -3.453000000
O     3.066000000    -1.993000000     4.740000000
H     3.516000000    -2.156000000     5.569000000
H     2.242000000    -1.576000000     4.993000000
O    -1.423000000     3.369000000    -3.131000000
H    -1.427000000     3.935000000    -2.359000000
H    -2.132000000     2.746000000    -2.975000000
O     2.268000000     0.075000000     6.366000000
H     1.385000000     0.416000000     6.503000000
H     2.526000000    -0.271000000     7.220000000
O     3.785000000    -4.954000000     0.615000000
H     3.082000000    -5.385000000     1.102000000
H     3.678000000    -5.263000000    -0.284000000
O     1.505000000    -4.940000000     4.906000000
H     0.982000000    -4.848000000     4.109000000
H     1.557000000    -4.052000000     5.262000000
O     0.836000000    -5.123000000     0.022000000
H     0.854000000    -5.117000000    -0.935000000
H     0.629000000    -4.220000000     0.263000000
O     3.042000000    -3.106000000    -2.568000000
H     2.259000000    -3.571000000    -2.864000000
H     3.679000000    -3.238000000    -3.271000000
O    -3.808000000     1.791000000    -2.965000000
H    -3.897000000     0.892000000    -3.280000000
H    -4.702000000     2.133000000    -2.960000000
O    -1.449000000    -1.169000000     3.439000000
H    -2.310000000    -1.289000000     3.037000000
H    -0.888000000    -0.877000000     2.721000000
O    -3.907000000    -0.857000000     1.510000000
H    -4.595000000    -0.247000000     1.775000000
H    -4.216000000    -1.221000000     0.680000000
O     0.219000000     2.034000000     6.701000000
H     0.979000000     2.616000000     6.699000000
H    -0.532000000     2.622000000     6.786000000
O     1.818000000     4.220000000     6.678000000
H     1.309000000     4.694000000     6.020000000
H     2.554000000     3.850000000     6.191000000
O     3.394000000    -6.142000000    -2.045000000
H     4.103000000    -6.016000000    -2.675000000
H     2.697000000    -5.561000000    -2.349000000
O    -4.862000000    -5.440000000     1.174000000
H    -4.563000000    -5.752000000     2.028000000
H    -4.090000000    -5.508000000     0.611000000
O     4.169000000     3.725000000     5.328000000
H     4.281000000     3.972000000     4.410000000
H     4.519000000     4.467000000     5.820000000
O     5.435000000     3.726000000     0.645000000
H     6.177000000     4.329000000     0.698000000
H     5.784000000     2.890000000     0.954000000
O    -0.077000000     6.261000000     5.182000000
H    -0.660000000     6.976000000     5.435000000
H    -0.306000000     6.076000000     4.271000000
O     5.977000000    -0.664000000     3.210000000
H     5.108000000    -0.887000000     2.877000000
H     5.821000000     0.047000000     3.832000000
O    -1.590000000     2.130000000     4.190000000
H    -1.741000000     2.618000000     4.999000000
H    -0.936000000     1.472000000     4.427000000
O    -2.941000000    -4.984000000    -1.092000000
H    -2.579000000    -4.206000000    -1.517000000
H    -2.304000000    -5.675000000    -1.275000000
O     2.466000000     4.683000000    -2.676000000
H     2.639000000     3.773000000    -2.434000000
H     2.069000000     4.629000000    -3.545000000
O     3.551000000     2.227000000    -1.974000000
H     3.316000000     1.358000000    -2.300000000
H     3.981000000     2.060000000    -1.136000000
O    -1.558000000    -7.350000000    -2.173000000
H    -1.250000000    -7.358000000    -3.079000000
H    -0.924000000    -7.890000000    -1.700000000
O     3.964000000     4.531000000     2.738000000
H     4.197000000     4.107000000     1.912000000
H     3.790000000     5.441000000     2.499000000
O     0.408000000    -3.155000000    -6.947000000
H     1.133000000    -2.709000000    -7.386000000
H    -0.205000000    -2.454000000    -6.726000000
O    -0.009000000     6.305000000    -1.676000000
H     0.711000000     5.678000000    -1.596000000
H     0.394000000     7.083000000    -2.061000000
O    -5.395000000    -2.481000000    -0.456000000
H    -5.644000000    -3.263000000     0.036000000
H    -5.339000000    -2.778000000    -1.365000000
O    -1.369000000     4.796000000     3.050000000
H    -1.109000000     3.887000000     3.200000000
H    -0.925000000     5.041000000     2.238000000
O    -2.616000000    -3.356000000    -4.739000000
H    -1.850000000    -3.268000000    -4.173000000
H    -2.608000000    -2.566000000    -5.279000000
O     5.305000000     0.870000000    -0.034000000
H     5.880000000     0.832000000     0.730000000
H     5.022000000    -0.034000000    -0.166000000
O    -3.254000000    -5.339000000    -6.265000000
H    -2.967000000    -4.601000000    -5.728000000
H    -4.203000000    -5.371000000    -6.141000000
O    -0.081000000    -2.255000000     5.330000000
H    -0.580000000    -1.664000000     4.767000000
H    -0.631000000    -3.035000000     5.406000000
O    -0.202000000    -4.229000000     2.843000000
H    -0.711000000    -3.422000000     2.771000000
H    -0.800000000    -4.916000000     2.547000000
