144
-2818.17669
O     1.196000000    -2.695000000    -4.150000000
H     1.281000000    -2.506000000    -5.085000000
H     0.333000000    -2.354000000    -3.915000000
O     4.398000000     5.916000000    -0.567000000
H     5.299000000     5.689000000    -0.339000000
H     3.868000000     5.521000000     0.126000000
O    -4.087000000     4.208000000    -3.450000000
H    -3.467000000     4.632000000    -2.856000000
H    -3.814000000     3.291000000    -3.468000000
O     3.488000000    -0.036000000     3.143000000
H     2.588000000     0.289000000     3.157000000
H     3.910000000     0.459000000     2.440000000
O    -5.343000000     1.089000000     3.856000000
H    -5.680000000     1.691000000     4.519000000
H    -4.469000000     0.854000000     4.168000000
O    -4.543000000    -0.700000000    -2.870000000
H    -4.972000000    -0.132000000    -2.231000000
H    -3.850000000    -0.156000000    -3.246000000
O     1.584000000    -4.770000000     0.930000000
H     2.050000000    -5.404000000     0.384000000
H     2.113000000    -3.974000000     0.877000000
O    -3.082000000    -2.134000000    -5.497000000
H    -2.442000000    -1.730000000    -4.911000000
H    -2.600000000    -2.282000000    -6.311000000
O     2.765000000     6.080000000     2.551000000
H     3.124000000     6.738000000     3.147000000
H     3.369000000     5.340000000     2.620000000
O    -1.520000000    -5.244000000     0.414000000
H    -1.846000000    -5.535000000    -0.438000000
H    -0.603000000    -5.018000000     0.255000000
O    -7.549000000    -0.859000000    -3.435000000
H    -7.156000000    -1.593000000    -3.907000000
H    -6.834000000    -0.232000000    -3.328000000
O     0.765000000     5.977000000     0.552000000
H     0.105000000     6.010000000     1.245000000
H     1.598000000     5.904000000     1.018000000
O     1.139000000    -5.487000000    -2.843000000
H     1.145000000    -4.529000000    -2.842000000
H     0.982000000    -5.725000000    -3.756000000
O    -6.275000000    -2.714000000     0.810000000
H    -6.050000000    -2.825000000    -0.113000000
H    -7.202000000    -2.476000000     0.804000000
O    -5.760000000     0.945000000    -1.091000000
H    -6.004000000     1.859000000    -1.239000000
H    -6.375000000     0.639000000    -0.424000000
O     2.684000000     0.079000000     6.134000000
H     2.540000000     0.291000000     5.212000000
H     2.110000000    -0.668000000     6.301000000
O    -2.240000000    -3.385000000     4.270000000
H    -2.891000000    -3.089000000     3.633000000
H    -1.799000000    -4.118000000     3.839000000
O     6.556000000    -2.649000000     2.415000000
H     7.382000000    -2.460000000     2.861000000
H     6.442000000    -1.921000000     1.805000000
O     1.544000000     1.589000000     3.959000000
H     0.746000000     1.161000000     4.268000000
H     1.235000000     2.265000000     3.356000000
O    -0.006000000    -1.839000000     2.528000000
H    -0.882000000    -2.154000000     2.305000000
H     0.316000000    -1.435000000     1.722000000
O     3.790000000     3.407000000     5.057000000
H     3.190000000     2.687000000     4.864000000
H     4.419000000     3.395000000     4.335000000
O     5.451000000     0.845000000     4.990000000
H     5.665000000     0.022000000     5.430000000
H     4.688000000     0.638000000     4.451000000
O     5.261000000     3.004000000     2.788000000
H     4.790000000     3.067000000     1.957000000
H     6.065000000     2.532000000     2.572000000
O    -3.799000000     2.529000000     0.588000000
H    -4.113000000     1.798000000     0.056000000
H    -3.473000000     3.165000000    -0.049000000
O     3.521000000    -2.804000000     0.770000000
H     4.014000000    -2.592000000     1.562000000
H     3.415000000    -1.965000000     0.321000000
O    -4.906000000    -3.250000000    -2.089000000
H    -4.528000000    -3.727000000    -2.828000000
H    -4.689000000    -2.333000000    -2.260000000
O    -3.071000000     0.632000000     5.310000000
H    -2.533000000    -0.146000000     5.164000000
H    -2.481000000     1.256000000     5.734000000
O     6.656000000    -3.303000000    -2.375000000
H     6.626000000    -2.353000000    -2.263000000
H     5.741000000    -3.579000000    -2.326000000
O     2.501000000     2.878000000    -3.639000000
H     1.719000000     3.133000000    -3.149000000
H     2.546000000     1.927000000    -3.539000000
O     4.566000000     2.880000000    -1.272000000
H     3.966000000     3.621000000    -1.361000000
H     4.081000000     2.240000000    -0.752000000
O     6.964000000     3.310000000    -2.784000000
H     6.210000000     3.238000000    -2.199000000
H     7.235000000     2.405000000    -2.938000000
O    -0.179000000    -0.356000000     4.827000000
H    -0.241000000    -0.963000000     4.089000000
H    -0.443000000    -0.876000000     5.587000000
O     7.434000000     1.287000000     2.903000000
H     6.807000000     1.197000000     3.621000000
H     8.281000000     1.080000000     3.298000000
O    -2.802000000     4.567000000    -1.131000000
H    -2.006000000     4.997000000    -1.445000000
H    -2.956000000     4.949000000    -0.268000000
O     6.620000000    -0.415000000     0.531000000
H     5.860000000     0.042000000     0.171000000
H     7.049000000     0.235000000     1.088000000
O    -0.473000000     2.340000000    -2.027000000
H    -0.501000000     1.760000000    -1.266000000
H    -0.338000000     3.213000000    -1.658000000
O     3.727000000    -3.530000000    -2.751000000
H     3.629000000    -2.668000000    -2.347000000
H     3.083000000    -3.536000000    -3.459000000
O     3.272000000    -2.650000000     4.123000000
H     4.048000000    -3.091000000     3.778000000
H     3.388000000    -1.732000000     3.875000000
O     3.622000000    -0.482000000    -4.805000000
H     4.319000000    -0.538000000    -5.459000000
H     2.833000000    -0.757000000    -5.272000000
O    -0.971000000    -0.970000000    -4.134000000
H    -0.491000000    -0.469000000    -4.793000000
H    -1.311000000    -0.308000000    -3.531000000
O     5.153000000    -0.830000000    -2.721000000
H     4.515000000    -0.625000000    -3.405000000
H     4.657000000    -0.768000000    -1.904000000
O    -7.009000000     1.107000000     1.275000000
H    -7.463000000     0.488000000     1.847000000
H    -6.203000000     1.320000000     1.745000000
O    -2.639000000     1.581000000    -3.590000000
H    -2.522000000     1.784000000    -4.518000000
H    -1.862000000     1.943000000    -3.164000000
O     7.532000000     0.402000000    -2.257000000
H     6.699000000     0.009000000    -2.515000000
H     7.678000000     0.091000000    -1.364000000
O     3.132000000     3.681000000     1.142000000
H     2.186000000     3.783000000     1.247000000
H     3.271000000     2.734000000     1.132000000
O    -2.378000000     4.089000000     2.472000000
H    -2.872000000     3.371000000     2.077000000
H    -2.543000000     4.005000000     3.411000000
O    -4.324000000    -2.009000000     2.671000000
H    -4.819000000    -2.541000000     2.049000000
H    -4.473000000    -1.107000000     2.386000000
O     0.259000000     3.556000000     2.716000000
H     0.507000000     4.415000000     3.057000000
H    -0.662000000     3.652000000     2.471000000
