144
-2823.65812
O    -2.375000000     3.764000000     5.010000000
H    -1.446000000     3.744000000     4.783000000
H    -2.685000000     2.876000000     4.831000000
O     5.125000000    -2.007000000     1.051000000
H     5.793000000    -1.984000000     1.736000000
H     4.681000000    -1.162000000     1.120000000
O     5.609000000     1.964000000     2.051000000
H     5.340000000     2.866000000     2.224000000
H     4.818000000     1.538000000     1.719000000
O    -5.012000000     2.298000000     0.994000000
H    -4.346000000     2.875000000     1.367000000
H    -4.823000000     1.439000000     1.370000000
O    -0.775000000     1.964000000    -2.971000000
H    -0.762000000     2.757000000    -3.507000000
H    -1.406000000     2.154000000    -2.277000000
O    -4.305000000    -3.166000000     1.989000000
H    -3.382000000    -3.378000000     1.851000000
H    -4.380000000    -3.020000000     2.932000000
O     1.781000000    -3.927000000     1.660000000
H     2.180000000    -4.187000000     0.830000000
H     2.519000000    -3.833000000     2.262000000
O     0.223000000    -3.529000000    -4.094000000
H     1.062000000    -3.225000000    -3.749000000
H    -0.056000000    -2.836000000    -4.692000000
O     2.536000000    -5.605000000    -2.196000000
H     2.822000000    -4.928000000    -2.809000000
H     2.669000000    -5.217000000    -1.331000000
O    -7.442000000    -0.421000000    -0.597000000
H    -7.287000000    -0.569000000    -1.530000000
H    -7.985000000     0.367000000    -0.567000000
O    -3.753000000     4.225000000     2.538000000
H    -3.389000000     4.976000000     2.070000000
H    -3.287000000     4.216000000     3.375000000
O    -1.949000000    -5.408000000    -3.610000000
H    -1.758000000    -6.333000000    -3.769000000
H    -1.116000000    -4.962000000    -3.763000000
O    -6.668000000     3.003000000    -1.421000000
H    -6.353000000     3.906000000    -1.411000000
H    -6.130000000     2.554000000    -0.769000000
O     3.839000000    -3.839000000     3.403000000
H     4.215000000    -4.261000000     4.176000000
H     4.037000000    -2.909000000     3.518000000
O    -3.305000000     3.367000000    -4.129000000
H    -3.300000000     3.801000000    -3.277000000
H    -2.568000000     3.754000000    -4.601000000
O    -1.064000000     5.807000000     0.410000000
H    -1.188000000     6.724000000     0.168000000
H    -0.130000000     5.735000000     0.607000000
O     1.214000000     0.879000000    -4.586000000
H     0.537000000     1.373000000    -4.124000000
H     1.954000000     0.860000000    -3.978000000
O    -5.174000000     1.701000000    -4.831000000
H    -4.508000000     2.357000000    -4.627000000
H    -5.178000000     1.119000000    -4.071000000
O     1.652000000     2.349000000     4.343000000
H     1.212000000     1.530000000     4.570000000
H     2.106000000     2.159000000     3.522000000
O    -6.980000000    -2.087000000     1.489000000
H    -6.928000000    -1.564000000     0.690000000
H    -6.246000000    -2.698000000     1.425000000
O     0.990000000    -0.026000000     5.375000000
H     0.840000000    -0.666000000     4.679000000
H     1.909000000    -0.142000000     5.613000000
O     1.410000000     3.780000000    -2.741000000
H     1.626000000     3.277000000    -3.526000000
H     0.702000000     3.287000000    -2.327000000
O     4.490000000    -0.733000000     3.739000000
H     4.116000000    -0.316000000     2.962000000
H     4.624000000    -0.014000000     4.356000000
O     3.203000000    -2.773000000    -3.535000000
H     3.680000000    -3.000000000    -4.333000000
H     3.794000000    -2.187000000    -3.062000000
O    -3.987000000    -0.163000000     2.094000000
H    -3.662000000    -0.993000000     1.747000000
H    -4.697000000    -0.411000000     2.686000000
O    -1.478000000     0.845000000     6.195000000
H    -0.634000000     0.469000000     5.944000000
H    -2.127000000     0.270000000     5.791000000
O    -1.991000000    -1.847000000     4.458000000
H    -1.650000000    -2.474000000     5.095000000
H    -1.383000000    -1.901000000     3.720000000
O    -4.627000000    -0.356000000    -6.521000000
H    -4.653000000     0.280000000    -5.806000000
H    -3.700000000    -0.422000000    -6.749000000
O     5.693000000     1.565000000    -1.077000000
H     5.619000000     1.627000000    -0.125000000
H     5.616000000     0.630000000    -1.263000000
O    -1.849000000    -3.703000000     1.470000000
H    -1.918000000    -3.863000000     0.529000000
H    -1.218000000    -4.353000000     1.778000000
O     3.239000000     4.843000000    -1.013000000
H     2.586000000     4.480000000    -1.611000000
H     4.076000000     4.699000000    -1.456000000
O     3.825000000     0.935000000    -3.708000000
H     4.211000000     1.806000000    -3.803000000
H     4.343000000     0.518000000    -3.020000000
O     3.469000000     4.134000000     5.421000000
H     3.708000000     4.435000000     4.544000000
H     2.763000000     3.505000000     5.274000000
O     3.781000000    -4.114000000    -0.271000000
H     4.582000000    -4.411000000    -0.702000000
H     4.071000000    -3.422000000     0.323000000
O     8.071000000     0.629000000     3.167000000
H     7.828000000    -0.274000000     2.961000000
H     7.606000000     1.156000000     2.517000000
O     0.277000000    -1.684000000     2.923000000
H     0.180000000    -1.328000000     2.040000000
H     0.668000000    -2.548000000     2.791000000
O    -4.723000000    -3.069000000    -1.332000000
H    -4.128000000    -3.472000000    -0.700000000
H    -4.356000000    -3.295000000    -2.186000000
O    -7.471000000    -3.213000000    -1.925000000
H    -7.499000000    -2.869000000    -2.818000000
H    -6.575000000    -3.050000000    -1.633000000
O     3.852000000     5.616000000     2.806000000
H     3.445000000     5.132000000     2.088000000
H     4.050000000     6.476000000     2.434000000
O    -3.893000000    -3.457000000    -4.139000000
H    -3.859000000    -3.093000000    -5.024000000
H    -3.159000000    -4.070000000    -4.103000000
O    -4.023000000     1.378000000     4.678000000
H    -3.985000000     1.116000000     3.758000000
H    -4.642000000     0.766000000     5.076000000
O     5.577000000    -1.177000000    -2.050000000
H     6.125000000    -1.564000000    -2.733000000
H     5.768000000    -1.695000000    -1.268000000
O    -2.919000000     4.796000000    -1.446000000
H    -3.462000000     5.584000000    -1.443000000
H    -2.237000000     4.973000000    -0.799000000
O     0.154000000     4.552000000     3.642000000
H     0.875000000     3.998000000     3.938000000
H     0.330000000     4.698000000     2.712000000
O    -4.835000000    -0.502000000    -3.230000000
H    -4.626000000    -1.357000000    -3.607000000
H    -4.504000000    -0.547000000    -2.334000000
O    -2.239000000    -4.448000000    -1.079000000
H    -2.165000000    -4.472000000    -2.033000000
H    -1.963000000    -5.319000000    -0.795000000
O     0.285000000    -1.493000000    -6.127000000
H     0.918000000    -1.695000000    -6.815000000
H     0.679000000    -0.766000000    -5.644000000
O     1.517000000     4.509000000     1.248000000
H     2.002000000     4.887000000     0.514000000
H     1.769000000     3.585000000     1.250000000
