144
-2806.38271
O    -4.168000000     5.949000000     1.318000000
H    -3.510000000     5.345000000     1.661000000
H    -3.949000000     6.792000000     1.715000000
O    -3.204000000    -5.980000000    -1.664000000
H    -2.474000000    -6.162000000    -1.072000000
H    -3.257000000    -6.755000000    -2.224000000
O     0.064000000     3.059000000    -2.200000000
H    -0.291000000     3.613000000    -2.896000000
H    -0.669000000     2.500000000    -1.941000000
O    -2.299000000    -0.305000000     3.201000000
H    -1.730000000    -0.604000000     3.911000000
H    -1.701000000     0.081000000     2.561000000
O     4.163000000     0.239000000    -1.099000000
H     3.361000000     0.601000000    -1.478000000
H     3.899000000    -0.074000000    -0.234000000
O    -2.254000000     4.033000000     2.067000000
H    -1.615000000     3.927000000     2.772000000
H    -1.742000000     4.360000000     1.328000000
O    -0.601000000     5.103000000     0.244000000
H     0.088000000     4.517000000    -0.068000000
H    -0.133000000     5.800000000     0.704000000
O     2.224000000     4.155000000    -0.677000000
H     1.576000000     3.907000000    -1.336000000
H     3.021000000     3.695000000    -0.940000000
O    -0.388000000    -2.076000000    -4.259000000
H     0.060000000    -1.276000000    -4.535000000
H     0.260000000    -2.543000000    -3.733000000
O     4.843000000    -4.230000000    -2.933000000
H     5.510000000    -4.191000000    -2.247000000
H     4.500000000    -3.338000000    -2.984000000
O    -4.597000000    -1.213000000     0.718000000
H    -4.319000000    -1.772000000    -0.008000000
H    -3.835000000    -1.177000000     1.296000000
O    -0.240000000     5.113000000     3.709000000
H     0.138000000     5.028000000     4.584000000
H     0.517000000     5.174000000     3.126000000
O     3.714000000     6.050000000     2.951000000
H     4.389000000     5.408000000     3.172000000
H     2.997000000     5.529000000     2.591000000
O     2.444000000     0.447000000     4.844000000
H     2.686000000     0.838000000     4.004000000
H     2.008000000    -0.372000000     4.610000000
O    -3.669000000    -4.259000000    -3.929000000
H    -3.453000000    -4.687000000    -3.100000000
H    -3.001000000    -4.569000000    -4.540000000
O    -7.144000000     0.796000000    -2.567000000
H    -6.546000000     0.067000000    -2.731000000
H    -7.662000000     0.515000000    -1.813000000
O     2.532000000    -5.356000000     2.503000000
H     3.301000000    -4.898000000     2.841000000
H     2.351000000    -6.033000000     3.154000000
O     3.466000000    -2.548000000     2.856000000
H     3.770000000    -2.255000000     1.997000000
H     4.239000000    -2.939000000     3.263000000
O    -6.363000000    -1.608000000    -3.306000000
H    -6.352000000    -1.943000000    -4.203000000
H    -6.363000000    -2.393000000    -2.758000000
O     1.663000000    -3.815000000    -2.930000000
H     1.306000000    -3.858000000    -2.043000000
H     2.514000000    -3.389000000    -2.826000000
O     6.854000000     0.437000000    -2.556000000
H     5.996000000     0.091000000    -2.311000000
H     7.359000000     0.423000000    -1.743000000
O    -3.034000000     2.371000000    -2.522000000
H    -3.310000000     2.867000000    -3.293000000
H    -3.634000000     1.626000000    -2.490000000
O    -0.639000000    -1.172000000     5.580000000
H     0.068000000    -1.388000000     4.972000000
H    -0.482000000    -1.735000000     6.338000000
O     8.454000000    -2.030000000     1.164000000
H     9.094000000    -1.374000000     1.442000000
H     7.611000000    -1.674000000     1.443000000
O     1.188000000    -1.679000000     3.673000000
H     0.758000000    -2.063000000     2.909000000
H     2.105000000    -1.940000000     3.587000000
O     5.040000000     2.674000000     1.914000000
H     4.363000000     2.129000000     2.314000000
H     4.969000000     2.495000000     0.976000000
O     2.045000000     0.944000000    -2.619000000
H     1.457000000     1.667000000    -2.403000000
H     1.499000000     0.331000000    -3.113000000
O     6.132000000    -0.605000000     2.289000000
H     5.287000000    -0.548000000     1.843000000
H     6.241000000     0.249000000     2.707000000
O    -0.710000000    -5.423000000    -3.948000000
H    -0.389000000    -6.247000000    -3.581000000
H    -0.060000000    -4.773000000    -3.682000000
O     0.466000000    -3.545000000     1.854000000
H     1.271000000    -3.960000000     2.164000000
H     0.514000000    -3.611000000     0.900000000
O     0.105000000     1.781000000     5.327000000
H     0.959000000     1.355000000     5.254000000
H    -0.490000000     1.081000000     5.596000000
O     3.947000000    -1.821000000    -3.422000000
H     3.873000000    -1.360000000    -4.258000000
H     3.912000000    -1.128000000    -2.763000000
O     2.203000000     1.061000000     7.612000000
H     2.170000000     1.144000000     6.659000000
H     2.522000000     0.171000000     7.763000000
O    -2.232000000    -4.294000000     2.523000000
H    -1.389000000    -3.963000000     2.215000000
H    -2.881000000    -3.738000000     2.091000000
O    -2.788000000    -1.067000000    -5.069000000
H    -2.001000000    -1.527000000    -4.775000000
H    -3.506000000    -1.502000000    -4.609000000
O    -3.856000000    -3.888000000     0.226000000
H    -4.625000000    -4.455000000     0.286000000
H    -3.323000000    -4.279000000    -0.466000000
O     1.948000000     4.213000000     2.057000000
H     1.722000000     4.431000000     1.153000000
H     2.085000000     3.266000000     2.049000000
O     0.687000000    -4.609000000    -0.603000000
H    -0.140000000    -5.084000000    -0.676000000
H     1.309000000    -5.258000000    -0.274000000
O     5.427000000     0.797000000     6.343000000
H     4.663000000     0.533000000     5.831000000
H     6.126000000     0.900000000     5.697000000
O    -6.365000000    -4.398000000    -2.433000000
H    -6.495000000    -4.662000000    -1.522000000
H    -5.485000000    -4.707000000    -2.648000000
O     4.545000000     2.867000000    -0.736000000
H     4.504000000     1.919000000    -0.859000000
H     5.010000000     3.189000000    -1.508000000
O    -4.798000000     2.685000000    -4.641000000
H    -5.451000000     2.071000000    -4.976000000
H    -4.474000000     3.139000000    -5.418000000
O     1.952000000     3.689000000     4.967000000
H     1.154000000     3.162000000     5.020000000
H     2.311000000     3.495000000     4.101000000
O     6.122000000     4.097000000     3.855000000
H     5.506000000     4.072000000     4.587000000
H     5.666000000     3.645000000     3.144000000
O     6.548000000    -2.924000000     4.472000000
H     7.404000000    -2.743000000     4.859000000
H     6.472000000    -2.295000000     3.754000000
O    -1.763000000     0.944000000    -6.522000000
H    -2.052000000     0.605000000    -7.369000000
H    -2.226000000     0.407000000    -5.879000000
O     0.545000000     0.469000000    -5.198000000
H     0.805000000     1.387000000    -5.279000000
H    -0.134000000     0.352000000    -5.862000000
O    -7.340000000    -0.685000000     0.316000000
H    -7.541000000    -1.581000000     0.588000000
H    -6.386000000    -0.628000000     0.363000000
