144
-2802.41692
O     0.437000000     2.260000000     4.648000000
H     0.764000000     2.332000000     3.751000000
H     0.156000000     3.147000000     4.872000000
O    -7.778000000     3.135000000    -2.480000000
H    -8.594000000     2.702000000    -2.230000000
H    -7.094000000     2.506000000    -2.254000000
O     0.995000000    -4.002000000     5.178000000
H     1.573000000    -3.243000000     5.251000000
H     1.324000000    -4.481000000     4.417000000
O     3.775000000    -4.366000000    -4.845000000
H     2.977000000    -4.606000000    -4.375000000
H     4.469000000    -4.855000000    -4.403000000
O    -3.110000000     0.245000000    -3.433000000
H    -2.445000000    -0.444000000    -3.447000000
H    -3.767000000    -0.043000000    -4.066000000
O    -2.289000000    -1.252000000     5.455000000
H    -1.883000000    -2.067000000     5.749000000
H    -1.566000000    -0.625000000     5.416000000
O    -3.541000000     2.161000000     4.077000000
H    -2.804000000     1.850000000     4.603000000
H    -3.815000000     2.972000000     4.506000000
O     4.226000000     2.369000000     2.563000000
H     3.305000000     2.614000000     2.471000000
H     4.386000000     2.386000000     3.507000000
O     4.449000000     0.114000000    -4.334000000
H     3.638000000     0.385000000    -4.763000000
H     4.886000000     0.935000000    -4.107000000
O    -1.782000000     2.708000000    -3.506000000
H    -2.614000000     3.150000000    -3.673000000
H    -2.024000000     1.795000000    -3.351000000
O    -5.036000000     0.561000000    -0.933000000
H    -4.850000000     0.146000000    -1.775000000
H    -4.404000000     1.277000000    -0.874000000
O     1.063000000    -2.491000000    -7.257000000
H     1.147000000    -3.098000000    -6.521000000
H     1.814000000    -1.903000000    -7.169000000
O    -4.157000000     4.092000000     1.697000000
H    -4.246000000     3.190000000     2.005000000
H    -3.389000000     4.428000000     2.159000000
O     2.016000000    -1.723000000    -4.401000000
H     2.105000000    -1.970000000    -3.481000000
H     2.648000000    -2.276000000    -4.860000000
O     1.502000000     2.995000000     2.239000000
H     0.889000000     2.799000000     1.531000000
H     1.399000000     3.934000000     2.392000000
O    -0.135000000     4.266000000    -1.257000000
H    -0.943000000     4.071000000    -1.733000000
H     0.370000000     4.814000000    -1.858000000
O    -5.573000000     1.972000000    -4.934000000
H    -4.992000000     2.545000000    -4.433000000
H    -5.038000000     1.671000000    -5.669000000
O    -2.832000000    -2.551000000    -0.367000000
H    -2.251000000    -2.355000000     0.368000000
H    -2.544000000    -1.961000000    -1.064000000
O    -6.440000000    -1.927000000    -0.829000000
H    -6.704000000    -1.402000000    -1.584000000
H    -5.842000000    -1.361000000    -0.341000000
O     7.907000000    -2.298000000    -2.824000000
H     8.291000000    -1.503000000    -2.455000000
H     6.983000000    -2.253000000    -2.581000000
O     5.450000000    -3.337000000    -0.255000000
H     4.617000000    -3.418000000     0.211000000
H     5.235000000    -2.841000000    -1.045000000
O    -2.017000000     7.234000000     2.962000000
H    -1.798000000     7.509000000     2.071000000
H    -1.344000000     6.590000000     3.185000000
O    -6.736000000     4.816000000     2.527000000
H    -5.852000000     4.516000000     2.314000000
H    -6.765000000     4.812000000     3.484000000
O     2.553000000    -6.977000000     3.023000000
H     1.772000000    -6.978000000     3.577000000
H     2.290000000    -6.491000000     2.241000000
O    -1.265000000    -2.958000000     2.277000000
H    -1.921000000    -2.821000000     2.960000000
H    -0.510000000    -2.443000000     2.563000000
O    -5.407000000    -0.597000000     4.615000000
H    -5.457000000    -1.522000000     4.376000000
H    -4.478000000    -0.380000000     4.545000000
O    -0.463000000    -4.686000000     0.339000000
H    -0.792000000    -4.165000000     1.072000000
H    -0.470000000    -5.586000000     0.663000000
O     2.590000000    -5.060000000     0.764000000
H     2.204000000    -5.462000000    -0.014000000
H     2.578000000    -4.121000000     0.579000000
O     2.224000000    -5.130000000    -2.636000000
H     2.525000000    -4.268000000    -2.346000000
H     1.282000000    -5.023000000    -2.767000000
O     5.468000000     2.318000000    -2.719000000
H     4.729000000     2.453000000    -2.125000000
H     6.151000000     1.937000000    -2.167000000
O     3.065000000    -1.926000000     4.858000000
H     3.103000000    -1.648000000     3.943000000
H     3.954000000    -1.791000000     5.186000000
O     0.905000000    -4.429000000    -5.367000000
H     0.304000000    -4.387000000    -4.623000000
H     0.993000000    -5.364000000    -5.552000000
O     8.128000000    -3.444000000     0.408000000
H     7.191000000    -3.505000000     0.221000000
H     8.229000000    -2.606000000     0.859000000
O    -0.310000000     2.056000000    -5.546000000
H    -0.813000000     2.457000000    -4.838000000
H    -0.959000000     1.569000000    -6.055000000
O     5.390000000    -5.791000000     1.491000000
H     5.957000000    -5.467000000     0.791000000
H     4.543000000    -5.378000000     1.324000000
O     0.645000000    -0.626000000     5.254000000
H     0.664000000     0.258000000     4.887000000
H     1.565000000    -0.888000000     5.295000000
O    -3.200000000    -3.621000000    -4.317000000
H    -3.120000000    -3.741000000    -3.371000000
H    -2.545000000    -2.957000000    -4.532000000
O     2.007000000     0.898000000    -5.416000000
H     1.152000000     1.326000000    -5.464000000
H     1.831000000     0.062000000    -4.984000000
O    -0.671000000    -4.302000000    -2.544000000
H    -0.456000000    -4.162000000    -1.622000000
H    -1.489000000    -4.800000000    -2.526000000
O     4.182000000     3.711000000    -0.362000000
H     3.237000000     3.601000000    -0.468000000
H     4.378000000     3.303000000     0.481000000
O     3.859000000    -1.101000000     2.452000000
H     3.924000000    -0.160000000     2.284000000
H     3.706000000    -1.488000000     1.590000000
O    -4.392000000     4.621000000    -0.965000000
H    -5.008000000     5.351000000    -0.896000000
H    -4.363000000     4.248000000    -0.084000000
O     7.088000000    -2.140000000     3.272000000
H     6.163000000    -2.375000000     3.207000000
H     7.154000000    -1.646000000     4.089000000
O     1.660000000     2.463000000    -0.817000000
H     1.052000000     3.167000000    -1.045000000
H     1.164000000     1.659000000    -0.973000000
O    -1.120000000    -1.833000000    -3.767000000
H    -0.357000000    -1.361000000    -4.100000000
H    -0.766000000    -2.662000000    -3.444000000
O     5.156000000    -1.481000000    -2.277000000
H     4.251000000    -1.757000000    -2.129000000
H     5.083000000    -0.719000000    -2.851000000
O    -4.184000000     4.329000000    -3.766000000
H    -3.911000000     5.192000000    -4.077000000
H    -4.178000000     4.405000000    -2.812000000
O    -0.421000000     5.284000000     1.322000000
H     0.488000000     5.507000000     1.521000000
H    -0.419000000     5.083000000     0.386000000
