144
-2811.14864
O    -4.898000000    -1.379000000    -0.866000000
H    -4.478000000    -1.747000000    -0.088000000
H    -4.789000000    -0.432000000    -0.771000000
O     6.819000000    -1.395000000     2.848000000
H     6.334000000    -1.545000000     2.036000000
H     7.732000000    -1.567000000     2.616000000
O     1.901000000     0.370000000     4.414000000
H     1.720000000     1.203000000     4.850000000
H     2.760000000     0.493000000     4.010000000
O    -2.424000000     1.184000000    -3.817000000
H    -2.790000000     0.436000000    -3.345000000
H    -1.720000000     0.810000000    -4.347000000
O    -0.632000000    -0.942000000     4.458000000
H     0.015000000    -0.242000000     4.370000000
H    -0.319000000    -1.467000000     5.194000000
O    -1.908000000     2.825000000     3.406000000
H    -2.081000000     3.042000000     4.322000000
H    -2.776000000     2.722000000     3.016000000
O    -3.894000000    -0.255000000     4.019000000
H    -3.640000000    -1.154000000     4.225000000
H    -3.176000000     0.079000000     3.481000000
O     5.042000000     0.933000000    -5.223000000
H     5.970000000     0.771000000    -5.392000000
H     4.771000000     0.208000000    -4.659000000
O    -4.449000000     3.565000000     2.663000000
H    -4.727000000     3.184000000     3.496000000
H    -5.152000000     3.344000000     2.052000000
O    -0.886000000    -2.286000000    -4.377000000
H    -0.984000000    -2.576000000    -3.470000000
H    -1.708000000    -1.839000000    -4.575000000
O    -1.405000000     3.497000000    -6.106000000
H    -1.621000000     4.428000000    -6.062000000
H    -0.719000000     3.441000000    -6.770000000
O     3.505000000    -0.014000000     6.657000000
H     4.160000000    -0.041000000     5.959000000
H     2.667000000    -0.083000000     6.201000000
O     3.881000000    -3.373000000     5.872000000
H     3.399000000    -3.205000000     5.062000000
H     4.732000000    -2.956000000     5.735000000
O     6.566000000    -3.914000000     1.121000000
H     7.156000000    -4.128000000     1.844000000
H     7.084000000    -4.077000000     0.333000000
O     2.606000000    -3.570000000    -2.102000000
H     3.011000000    -2.801000000    -1.700000000
H     2.719000000    -4.266000000    -1.455000000
O     2.706000000    -6.146000000     4.503000000
H     2.411000000    -5.999000000     5.401000000
H     2.267000000    -5.465000000     3.992000000
O     1.750000000     2.972000000    -1.969000000
H     2.512000000     2.517000000    -1.611000000
H     1.077000000     2.294000000    -2.037000000
O     4.359000000     1.954000000    -0.377000000
H     5.285000000     2.198000000    -0.396000000
H     4.267000000     1.427000000     0.416000000
O     0.575000000    -4.630000000     0.340000000
H     0.100000000    -3.980000000    -0.177000000
H     0.227000000    -5.472000000     0.045000000
O    -6.993000000    -1.283000000     3.914000000
H    -6.931000000    -0.867000000     4.774000000
H    -6.116000000    -1.193000000     3.542000000
O    -5.097000000     2.060000000     5.404000000
H    -4.471000000     1.408000000     5.086000000
H    -4.611000000     2.556000000     6.063000000
O     3.904000000    -4.244000000     1.520000000
H     4.855000000    -4.323000000     1.439000000
H     3.720000000    -3.330000000     1.304000000
O    -2.405000000    -2.821000000     3.448000000
H    -1.582000000    -2.369000000     3.636000000
H    -2.241000000    -3.730000000     3.699000000
O    -5.693000000     2.084000000     0.249000000
H    -5.075000000     2.166000000    -0.478000000
H    -6.506000000     1.788000000    -0.160000000
O     1.887000000    -5.355000000    -4.544000000
H     1.783000000    -4.694000000    -3.860000000
H     2.004000000    -4.850000000    -5.349000000
O    -2.233000000     4.225000000    -2.945000000
H    -1.736000000     4.317000000    -2.131000000
H    -2.043000000     3.336000000    -3.243000000
O    -4.425000000    -2.947000000     1.306000000
H    -3.813000000    -3.023000000     2.038000000
H    -4.138000000    -3.614000000     0.682000000
O    -3.471000000    -4.411000000    -0.795000000
H    -2.714000000    -4.008000000    -1.219000000
H    -3.399000000    -5.341000000    -1.009000000
O     2.257000000     4.811000000    -3.989000000
H     2.045000000     5.704000000    -3.718000000
H     1.908000000     4.259000000    -3.289000000
O     1.026000000    -4.421000000     2.951000000
H     1.109000000    -4.589000000     2.012000000
H     1.347000000    -3.526000000     3.063000000
O     0.169000000     2.809000000     1.713000000
H    -0.383000000     3.025000000     2.465000000
H    -0.156000000     1.960000000     1.414000000
O     5.786000000    -1.499000000     5.241000000
H     6.256000000    -1.534000000     4.408000000
H     6.210000000    -0.792000000     5.726000000
O    -3.624000000    -1.351000000    -3.318000000
H    -4.124000000    -1.082000000    -2.547000000
H    -4.266000000    -1.364000000    -4.027000000
O    -0.885000000    -4.397000000    -2.478000000
H    -1.409000000    -4.987000000    -3.020000000
H    -0.279000000    -4.973000000    -2.013000000
O     4.187000000     0.339000000     2.978000000
H     3.978000000    -0.315000000     2.312000000
H     5.085000000     0.137000000     3.238000000
O    -4.989000000     2.074000000    -2.585000000
H    -5.777000000     1.888000000    -3.096000000
H    -4.334000000     2.324000000    -3.236000000
O     5.866000000    -1.229000000     0.186000000
H     6.017000000    -2.127000000     0.481000000
H     4.967000000    -1.233000000    -0.142000000
O    -7.620000000    -1.431000000     0.562000000
H    -6.784000000    -1.521000000     1.020000000
H    -7.992000000    -2.313000000     0.568000000
O     1.855000000    -2.310000000    -5.294000000
H     1.666000000    -1.489000000    -5.749000000
H     1.012000000    -2.581000000    -4.930000000
O    -0.507000000     4.631000000    -0.441000000
H    -0.015000000     5.429000000    -0.632000000
H     0.140000000     4.034000000    -0.066000000
O     8.504000000    -0.241000000     0.169000000
H     8.464000000     0.714000000     0.108000000
H     7.605000000    -0.529000000     0.009000000
O     2.671000000     3.507000000     2.866000000
H     3.143000000     3.904000000     2.135000000
H     1.824000000     3.257000000     2.497000000
O    -2.476000000     0.188000000     6.504000000
H    -3.090000000    -0.464000000     6.841000000
H    -2.254000000    -0.123000000     5.626000000
O     2.964000000    -6.853000000     1.581000000
H     2.563000000    -6.794000000     2.448000000
H     3.317000000    -5.978000000     1.421000000
O     4.257000000    -1.150000000    -3.527000000
H     4.658000000    -0.998000000    -2.671000000
H     3.771000000    -1.968000000    -3.422000000
O     2.402000000    -2.263000000     3.954000000
H     2.756000000    -1.982000000     3.110000000
H     2.130000000    -1.452000000     4.382000000
O    -3.763000000     5.800000000    -1.319000000
H    -3.750000000     5.329000000    -0.486000000
H    -3.391000000     5.183000000    -1.949000000
O    -2.323000000     5.293000000     1.745000000
H    -2.871000000     4.696000000     2.256000000
H    -1.516000000     4.803000000     1.589000000
