144
-2794.24524
O     5.422000000     3.028000000     1.999000000
H     5.489000000     2.076000000     2.069000000
H     6.049000000     3.263000000     1.314000000
O    -5.670000000     0.798000000     1.537000000
H    -5.020000000     0.141000000     1.783000000
H    -6.342000000     0.737000000     2.216000000
O     6.818000000    -1.527000000     4.154000000
H     7.515000000    -0.922000000     4.407000000
H     7.089000000    -1.862000000     3.300000000
O     1.092000000     0.306000000     4.685000000
H     1.290000000     0.892000000     5.415000000
H     1.492000000     0.727000000     3.924000000
O    -3.141000000    -1.355000000    -6.104000000
H    -4.065000000    -1.514000000    -5.910000000
H    -3.024000000    -0.416000000    -5.957000000
O     5.146000000    -5.420000000    -3.116000000
H     4.350000000    -5.385000000    -3.646000000
H     4.846000000    -5.259000000    -2.222000000
O    -0.070000000     1.687000000    -5.706000000
H     0.322000000     0.821000000    -5.595000000
H    -0.248000000     1.752000000    -6.644000000
O     0.026000000     3.640000000     3.151000000
H     0.476000000     4.314000000     3.660000000
H    -0.830000000     4.020000000     2.954000000
O    -2.561000000     2.017000000     5.341000000
H    -2.658000000     1.066000000     5.300000000
H    -3.452000000     2.354000000     5.246000000
O     3.585000000     0.532000000    -5.078000000
H     4.439000000     0.963000000    -5.059000000
H     3.695000000    -0.241000000    -4.524000000
O    -4.154000000     5.511000000     1.671000000
H    -3.845000000     5.297000000     2.552000000
H    -4.737000000     4.788000000     1.440000000
O    -1.418000000    -2.578000000    -4.072000000
H    -1.966000000    -3.331000000    -4.294000000
H    -2.034000000    -1.922000000    -3.745000000
O    -5.398000000    -0.433000000    -5.088000000
H    -5.342000000     0.424000000    -4.665000000
H    -6.337000000    -0.590000000    -5.187000000
O     5.266000000    -4.132000000     4.443000000
H     5.690000000    -3.291000000     4.617000000
H     4.640000000    -3.944000000     3.744000000
O     3.531000000    -4.292000000    -0.773000000
H     3.732000000    -3.378000000    -0.975000000
H     3.200000000    -4.271000000     0.125000000
O     3.455000000     2.428000000     0.058000000
H     3.972000000     2.008000000    -0.630000000
H     4.064000000     2.525000000     0.790000000
O     7.886000000     0.548000000     0.768000000
H     7.505000000     1.338000000     0.384000000
H     7.133000000     0.049000000     1.085000000
O     4.382000000     0.651000000    -1.974000000
H     3.813000000     0.639000000    -2.744000000
H     4.082000000    -0.086000000    -1.443000000
O     0.684000000    -4.781000000     1.298000000
H     0.454000000    -4.323000000     0.490000000
H     0.218000000    -5.615000000     1.243000000
O    -3.309000000     4.234000000     3.882000000
H    -2.691000000     3.536000000     4.099000000
H    -3.994000000     4.161000000     4.547000000
O     3.798000000    -3.715000000     2.047000000
H     4.538000000    -3.913000000     1.473000000
H     3.473000000    -2.870000000     1.736000000
O    -2.961000000    -0.716000000     5.353000000
H    -2.188000000    -1.104000000     5.763000000
H    -3.015000000    -1.138000000     4.495000000
O    -5.535000000     3.377000000     0.853000000
H    -5.678000000     3.251000000    -0.085000000
H    -5.527000000     2.491000000     1.215000000
O     2.103000000    -6.339000000    -2.174000000
H     2.502000000    -5.646000000    -1.648000000
H     2.264000000    -7.141000000    -1.676000000
O    -0.133000000     3.357000000    -3.379000000
H     0.379000000     2.933000000    -2.690000000
H    -0.412000000     2.638000000    -3.946000000
O    -2.183000000    -1.401000000     2.835000000
H    -1.772000000    -0.635000000     2.432000000
H    -1.450000000    -1.968000000     3.073000000
O    -2.363000000    -4.583000000     1.046000000
H    -1.706000000    -4.452000000     0.362000000
H    -2.846000000    -5.362000000     0.769000000
O     1.571000000     2.146000000    -1.746000000
H     2.167000000     2.419000000    -1.049000000
H     1.060000000     1.435000000    -1.360000000
O    -5.755000000     2.600000000    -1.648000000
H    -6.639000000     2.564000000    -2.015000000
H    -5.337000000     1.794000000    -1.950000000
O    -5.735000000    -0.931000000    -1.119000000
H    -6.091000000    -1.814000000    -1.018000000
H    -5.508000000    -0.662000000    -0.229000000
O    -0.008000000    -2.971000000     2.949000000
H     0.454000000    -3.636000000     2.438000000
H     0.680000000    -2.533000000     3.450000000
O     8.160000000    -3.614000000    -0.936000000
H     7.478000000    -3.216000000    -0.394000000
H     8.079000000    -3.174000000    -1.782000000
O    -4.333000000    -2.511000000     1.408000000
H    -3.906000000    -2.095000000     2.157000000
H    -3.840000000    -3.320000000     1.271000000
O     2.363000000     2.112000000     3.128000000
H     1.612000000     2.703000000     3.185000000
H     2.647000000     2.173000000     2.216000000
O     5.941000000    -2.645000000    -4.871000000
H     5.565000000    -3.455000000    -5.215000000
H     5.281000000    -2.316000000    -4.260000000
O    -3.767000000    -1.510000000    -2.977000000
H    -4.259000000    -1.315000000    -2.179000000
H    -4.428000000    -1.516000000    -3.669000000
O     3.361000000    -4.519000000    -5.210000000
H     3.184000000    -4.112000000    -6.058000000
H     2.600000000    -4.298000000    -4.674000000
O    -0.451000000    -4.036000000    -1.127000000
H    -0.619000000    -3.200000000    -1.562000000
H    -0.486000000    -4.684000000    -1.831000000
O    -0.682000000    -2.414000000    -6.736000000
H    -0.735000000    -1.812000000    -7.478000000
H    -1.333000000    -2.088000000    -6.115000000
O     5.305000000     0.195000000     2.054000000
H     4.531000000    -0.225000000     1.678000000
H     5.389000000    -0.193000000     2.925000000
O    -3.536000000     4.328000000    -2.371000000
H    -3.944000000     3.462000000    -2.361000000
H    -2.951000000     4.308000000    -3.128000000
O     6.389000000    -1.284000000    -1.044000000
H     6.126000000    -0.547000000    -1.597000000
H     5.593000000    -1.806000000    -0.947000000
O     1.301000000    -3.004000000    -4.717000000
H     1.047000000    -2.785000000    -5.613000000
H     0.496000000    -2.907000000    -4.209000000
O     3.459000000     2.760000000     5.392000000
H     2.586000000     2.824000000     5.780000000
H     3.319000000     2.308000000     4.560000000
O     2.416000000    -5.900000000     3.192000000
H     1.795000000    -5.605000000     2.526000000
H     3.259000000    -5.547000000     2.908000000
O     3.617000000    -1.868000000    -3.575000000
H     3.370000000    -1.853000000    -2.650000000
H     2.825000000    -2.156000000    -4.030000000
O     2.604000000    -2.511000000     4.409000000
H     2.927000000    -2.716000000     3.532000000
H     2.334000000    -1.594000000     4.357000000
O    -4.036000000     6.396000000    -1.046000000
H    -4.216000000     6.005000000    -0.191000000
H    -4.084000000     5.663000000    -1.660000000
