144
-2826.81272
O     3.997000000     0.865000000    -3.935000000
H     3.591000000     0.325000000    -3.257000000
H     4.937000000     0.718000000    -3.828000000
O     4.851000000    -0.418000000     2.759000000
H     3.918000000    -0.238000000     2.877000000
H     5.180000000    -0.567000000     3.645000000
O    -3.557000000     3.067000000    -4.621000000
H    -3.078000000     3.268000000    -3.817000000
H    -3.601000000     3.902000000    -5.089000000
O     0.162000000    -5.754000000     1.099000000
H    -0.478000000    -6.052000000     0.453000000
H     0.590000000    -5.004000000     0.685000000
O     3.342000000     4.834000000    -4.754000000
H     2.551000000     5.097000000    -4.284000000
H     3.158000000     3.945000000    -5.055000000
O     5.448000000     4.056000000     1.258000000
H     5.146000000     3.198000000     0.961000000
H     6.243000000     3.871000000     1.758000000
O     0.450000000     2.866000000     3.695000000
H     0.975000000     2.125000000     3.998000000
H     1.087000000     3.563000000     3.537000000
O    -1.343000000     4.252000000    -2.419000000
H    -1.147000000     5.083000000    -2.852000000
H    -0.647000000     3.661000000    -2.706000000
O     2.195000000     2.416000000    -5.229000000
H     1.397000000     2.123000000    -4.790000000
H     2.882000000     1.846000000    -4.882000000
O    -5.549000000     0.791000000     0.314000000
H    -5.862000000     1.682000000     0.157000000
H    -4.624000000     0.897000000     0.536000000
O    -3.445000000    -3.982000000     4.068000000
H    -3.687000000    -4.834000000     3.706000000
H    -2.505000000    -3.909000000     3.902000000
O     1.922000000    -1.380000000     6.144000000
H     2.181000000    -2.237000000     5.806000000
H     1.314000000    -1.577000000     6.856000000
O    -0.373000000     4.928000000    -5.817000000
H    -1.320000000     4.985000000    -5.949000000
H    -0.192000000     3.989000000    -5.778000000
O     2.843000000    -3.855000000     4.815000000
H     2.859000000    -4.715000000     4.396000000
H     2.802000000    -3.235000000     4.087000000
O    -2.320000000     3.040000000     5.951000000
H    -2.236000000     2.127000000     5.677000000
H    -1.828000000     3.090000000     6.771000000
O     2.075000000     4.298000000     0.920000000
H     2.432000000     3.898000000     0.126000000
H     2.662000000     4.009000000     1.618000000
O     5.720000000     1.323000000     0.580000000
H     5.779000000     0.897000000     1.436000000
H     4.959000000     0.919000000     0.163000000
O    -0.023000000    -3.597000000    -4.547000000
H     0.392000000    -3.230000000    -5.328000000
H    -0.388000000    -2.839000000    -4.091000000
O    -1.871000000    -2.550000000     5.865000000
H    -1.417000000    -3.377000000     6.025000000
H    -2.763000000    -2.807000000     5.633000000
O     0.505000000     6.379000000    -0.195000000
H    -0.032000000     6.865000000     0.432000000
H     0.832000000     5.629000000     0.301000000
O     3.125000000     2.914000000    -1.310000000
H     2.312000000     2.809000000    -1.804000000
H     3.509000000     2.038000000    -1.290000000
O     3.358000000     0.287000000    -0.542000000
H     3.526000000    -0.442000000    -1.140000000
H     2.439000000     0.185000000    -0.293000000
O     1.372000000    -3.536000000    -0.110000000
H     1.944000000    -4.021000000    -0.706000000
H     0.721000000    -3.129000000    -0.681000000
O    -1.915000000     1.808000000     3.052000000
H    -1.073000000     2.235000000     3.214000000
H    -1.966000000     1.120000000     3.716000000
O     2.855000000    -2.909000000     2.161000000
H     3.395000000    -2.145000000     1.954000000
H     2.177000000    -2.913000000     1.486000000
O    -1.454000000     0.621000000    -7.185000000
H    -1.527000000     0.535000000    -6.234000000
H    -0.586000000     0.272000000    -7.390000000
O    -3.070000000     4.347000000    -0.577000000
H    -2.515000000     4.330000000    -1.357000000
H    -2.774000000     3.602000000    -0.055000000
O     4.011000000     6.672000000    -2.248000000
H     4.019000000     7.410000000    -2.858000000
H     3.225000000     6.179000000    -2.480000000
O    -5.135000000    -1.847000000     4.117000000
H    -5.238000000    -1.899000000     5.068000000
H    -4.523000000    -2.552000000     3.904000000
O     2.090000000     0.591000000     4.336000000
H     1.590000000     0.031000000     4.930000000
H     2.935000000     0.707000000     4.772000000
O    -3.967000000    -5.369000000     0.637000000
H    -4.038000000    -5.587000000    -0.293000000
H    -4.662000000    -4.728000000     0.787000000
O    -2.078000000     0.270000000     5.287000000
H    -1.775000000    -0.611000000     5.069000000
H    -2.844000000     0.129000000     5.843000000
O    -2.909000000     1.607000000     0.573000000
H    -2.131000000     1.256000000     0.139000000
H    -2.653000000     1.692000000     1.492000000
O    -4.642000000    -2.754000000    -1.955000000
H    -5.412000000    -3.306000000    -1.816000000
H    -4.202000000    -3.144000000    -2.711000000
O    -3.349000000     0.485000000    -3.970000000
H    -3.431000000     1.346000000    -4.380000000
H    -4.109000000     0.423000000    -3.391000000
O     1.504000000     5.606000000    -2.750000000
H     1.365000000     4.676000000    -2.575000000
H     1.330000000     6.036000000    -1.913000000
O     2.294000000    -6.193000000     3.027000000
H     2.489000000    -7.065000000     2.686000000
H     1.475000000    -5.945000000     2.597000000
O     0.291000000    -5.065000000     5.762000000
H    -0.246000000    -5.465000000     5.078000000
H     1.100000000    -4.814000000     5.317000000
O     4.390000000     2.012000000     5.572000000
H     4.041000000     2.430000000     4.785000000
H     3.947000000     2.455000000     6.295000000
O    -1.110000000    -3.981000000    -1.830000000
H    -0.864000000    -4.374000000    -2.668000000
H    -1.948000000    -4.387000000    -1.612000000
O     3.920000000    -1.967000000    -2.192000000
H     4.642000000    -2.166000000    -2.787000000
H     3.454000000    -2.797000000    -2.094000000
O    -1.179000000    -5.967000000     3.690000000
H    -2.085000000    -6.269000000     3.625000000
H    -0.880000000    -5.908000000     2.783000000
O    -0.246000000     5.089000000     5.278000000
H    -0.628000000     4.359000000     4.791000000
H    -0.430000000     4.887000000     6.196000000
O    -5.526000000    -0.206000000    -2.210000000
H    -5.450000000     0.226000000    -1.359000000
H    -5.232000000    -1.103000000    -2.050000000
O     3.304000000    -0.562000000    -6.211000000
H     3.200000000    -0.276000000    -5.304000000
H     2.422000000    -0.517000000    -6.579000000
O     3.570000000     3.664000000     3.464000000
H     4.327000000     4.090000000     3.062000000
H     3.215000000     4.321000000     4.063000000
O     4.894000000    -4.602000000     1.305000000
H     4.581000000    -5.500000000     1.196000000
H     4.183000000    -4.154000000     1.763000000
O    -1.309000000    -0.987000000    -4.732000000
H    -2.121000000    -0.508000000    -4.568000000
H    -0.616000000    -0.349000000    -4.558000000
