144
-2833.17501
O     3.904000000    -0.168000000     1.041000000
H     4.170000000    -0.774000000     0.349000000
H     3.908000000     0.692000000     0.620000000
O     0.403000000     3.651000000    -5.319000000
H    -0.052000000     4.107000000    -4.611000000
H    -0.295000000     3.360000000    -5.905000000
O     2.338000000    -4.938000000     2.872000000
H     1.702000000    -5.620000000     2.652000000
H     2.622000000    -4.593000000     2.026000000
O     3.573000000    -1.666000000    -2.643000000
H     4.442000000    -1.267000000    -2.614000000
H     3.359000000    -1.708000000    -3.575000000
O    -5.314000000     4.172000000    -3.114000000
H    -5.857000000     3.875000000    -3.844000000
H    -5.072000000     3.368000000    -2.653000000
O    -5.832000000     3.210000000     2.714000000
H    -5.384000000     2.365000000     2.679000000
H    -6.210000000     3.317000000     1.842000000
O     3.648000000     6.400000000     1.133000000
H     3.120000000     5.983000000     1.814000000
H     4.183000000     7.040000000     1.602000000
O     2.338000000    -1.301000000    -5.193000000
H     2.010000000    -1.348000000    -6.091000000
H     1.573000000    -1.057000000    -4.671000000
O    -3.146000000    -1.516000000     3.189000000
H    -3.283000000    -1.794000000     4.095000000
H    -3.930000000    -1.814000000     2.726000000
O     0.003000000    -2.341000000     4.870000000
H     0.862000000    -2.676000000     4.612000000
H     0.076000000    -1.392000000     4.769000000
O     2.373000000     5.749000000    -1.418000000
H     2.087000000     4.860000000    -1.207000000
H     2.876000000     6.026000000    -0.652000000
O     2.814000000     2.711000000    -3.798000000
H     2.099000000     3.284000000    -4.074000000
H     2.677000000     2.593000000    -2.858000000
O     2.229000000    -5.249000000     5.384000000
H     2.158000000    -5.133000000     4.436000000
H     1.889000000    -4.433000000     5.751000000
O    -5.295000000    -3.335000000     1.478000000
H    -6.204000000    -3.206000000     1.207000000
H    -4.804000000    -3.374000000     0.657000000
O     6.115000000     3.711000000    -1.436000000
H     6.931000000     3.964000000    -1.005000000
H     6.350000000     3.621000000    -2.360000000
O     3.264000000    -4.330000000    -1.935000000
H     4.112000000    -4.457000000    -2.359000000
H     3.171000000    -3.380000000    -1.865000000
O    -1.102000000    -4.943000000     4.529000000
H    -0.353000000    -5.319000000     4.066000000
H    -0.859000000    -4.028000000     4.673000000
O     2.485000000    -1.470000000     2.777000000
H     2.933000000    -0.818000000     2.239000000
H     2.631000000    -2.299000000     2.321000000
O     4.252000000     2.365000000     0.047000000
H     3.371000000     2.740000000     0.054000000
H     4.749000000     2.933000000    -0.541000000
O    -3.456000000     0.979000000     4.490000000
H    -3.306000000     0.187000000     3.973000000
H    -3.250000000     0.721000000     5.388000000
O     0.555000000    -5.402000000    -1.803000000
H     1.436000000    -5.043000000    -1.688000000
H     0.145000000    -4.826000000    -2.448000000
O    -0.088000000    -3.576000000    -4.330000000
H    -0.912000000    -4.009000000    -4.108000000
H    -0.198000000    -3.305000000    -5.242000000
O    -4.785000000    -3.535000000    -1.733000000
H    -5.227000000    -3.869000000    -2.514000000
H    -5.128000000    -2.648000000    -1.625000000
O     0.417000000    -1.031000000    -3.391000000
H     0.432000000    -0.883000000    -2.446000000
H     0.112000000    -1.933000000    -3.487000000
O     4.088000000     5.240000000    -4.344000000
H     3.822000000     4.339000000    -4.160000000
H     3.604000000     5.767000000    -3.708000000
O    -2.757000000     3.017000000     2.909000000
H    -2.615000000     3.679000000     3.586000000
H    -3.157000000     2.282000000     3.373000000
O    -2.212000000    -4.201000000    -2.672000000
H    -2.059000000    -5.083000000    -2.333000000
H    -3.088000000    -3.974000000    -2.362000000
O    -0.509000000     0.350000000     3.782000000
H     0.034000000     0.953000000     3.275000000
H    -0.968000000    -0.171000000     3.123000000
O     5.225000000    -5.337000000     2.038000000
H     4.557000000    -4.697000000     1.792000000
H     4.786000000    -5.911000000     2.666000000
O    -5.447000000     3.502000000    -0.303000000
H    -5.305000000     2.607000000    -0.608000000
H    -4.580000000     3.803000000    -0.031000000
O    -6.394000000    -0.978000000    -1.102000000
H    -6.576000000    -0.845000000    -0.172000000
H    -7.171000000    -1.426000000    -1.436000000
O    -2.813000000     4.233000000     0.188000000
H    -1.955000000     3.977000000    -0.150000000
H    -2.829000000     3.896000000     1.084000000
O    -3.160000000     5.542000000    -2.127000000
H    -3.949000000     5.072000000    -2.397000000
H    -2.866000000     5.084000000    -1.340000000
O    -2.335000000     8.189000000    -1.642000000
H    -1.608000000     7.962000000    -1.063000000
H    -2.795000000     7.362000000    -1.785000000
O    -0.393000000    -8.121000000    -0.635000000
H     0.095000000    -8.714000000    -1.207000000
H    -0.053000000    -7.252000000    -0.845000000
O     5.148000000     1.505000000    -4.780000000
H     4.479000000     2.008000000    -4.317000000
H     4.749000000     1.296000000    -5.625000000
O    -0.003000000     7.019000000    -0.999000000
H     0.354000000     6.151000000    -0.809000000
H     0.542000000     7.352000000    -1.711000000
O    -0.125000000     3.200000000     2.656000000
H    -1.018000000     3.098000000     2.984000000
H    -0.234000000     3.443000000     1.737000000
O     3.595000000    -3.803000000     0.772000000
H     3.182000000    -4.150000000    -0.019000000
H     4.502000000    -3.639000000     0.517000000
O    -2.490000000    -4.773000000     2.224000000
H    -2.896000000    -3.906000000     2.244000000
H    -2.174000000    -4.910000000     3.117000000
O     7.017000000     1.950000000     1.091000000
H     7.325000000     1.534000000     0.285000000
H     6.173000000     2.334000000     0.854000000
O     5.749000000     0.083000000    -1.843000000
H     6.531000000     0.504000000    -2.199000000
H     5.231000000     0.803000000    -1.484000000
O     1.912000000     3.220000000     4.558000000
H     1.379000000     3.236000000     3.763000000
H     1.383000000     2.733000000     5.191000000
O     0.724000000    -7.074000000     3.274000000
H     0.166000000    -7.744000000     2.877000000
H     0.847000000    -7.369000000     4.176000000
O     5.913000000    -2.040000000     0.308000000
H     5.814000000    -1.413000000     1.024000000
H     6.031000000    -1.497000000    -0.471000000
O    -0.716000000     4.692000000    -3.049000000
H    -1.413000000     5.342000000    -2.956000000
H    -0.499000000     4.443000000    -2.151000000
O    -5.306000000     1.243000000    -2.203000000
H    -5.034000000     0.955000000    -3.075000000
H    -5.511000000     0.432000000    -1.737000000
O    -3.129000000    -6.669000000     0.201000000
H    -3.187000000    -5.833000000     0.663000000
H    -2.215000000    -6.935000000     0.301000000
