144
-2802.78320
O    -0.422000000     5.035000000     0.120000000
H     0.489000000     4.826000000    -0.085000000
H    -0.713000000     5.580000000    -0.610000000
O     1.992000000    -2.200000000    -5.321000000
H     2.480000000    -1.627000000    -5.912000000
H     2.365000000    -3.069000000    -5.470000000
O     0.577000000     3.293000000    -2.956000000
H     1.058000000     3.310000000    -2.129000000
H     1.256000000     3.236000000    -3.628000000
O     0.465000000     3.783000000     4.011000000
H     1.126000000     4.368000000     4.379000000
H     0.966000000     3.148000000     3.499000000
O     2.182000000     5.483000000     5.391000000
H     2.842000000     5.313000000     4.720000000
H     2.573000000     5.153000000     6.200000000
O    -3.940000000     2.933000000     3.458000000
H    -3.121000000     2.815000000     3.939000000
H    -4.307000000     2.052000000     3.390000000
O     4.176000000    -3.614000000    -0.368000000
H     4.386000000    -2.854000000     0.176000000
H     4.109000000    -3.262000000    -1.255000000
O    -0.629000000    -0.800000000    -5.156000000
H     0.208000000    -1.031000000    -4.753000000
H    -1.167000000    -1.585000000    -5.058000000
O    -5.152000000     2.564000000    -0.778000000
H    -4.233000000     2.311000000    -0.869000000
H    -5.641000000     1.830000000    -1.151000000
O    -0.087000000    -0.587000000     4.328000000
H    -0.409000000    -0.250000000     5.164000000
H     0.864000000    -0.616000000     4.432000000
O     5.134000000     5.896000000     1.797000000
H     4.557000000     5.377000000     2.358000000
H     5.062000000     5.485000000     0.935000000
O     4.826000000    -0.412000000     0.483000000
H     4.285000000     0.358000000     0.658000000
H     5.469000000    -0.112000000    -0.160000000
O    -5.013000000     2.779000000    -3.556000000
H    -5.048000000     3.732000000    -3.479000000
H    -4.433000000     2.501000000    -2.848000000
O     3.803000000     0.577000000    -2.727000000
H     4.692000000     0.910000000    -2.608000000
H     3.336000000     1.291000000    -3.161000000
O    -1.846000000    -3.210000000    -5.109000000
H    -2.657000000    -3.012000000    -5.577000000
H    -1.730000000    -4.154000000    -5.218000000
O    -3.994000000     1.181000000    -5.740000000
H    -4.614000000     1.707000000    -5.234000000
H    -3.154000000     1.311000000    -5.298000000
O    -1.825000000    -5.193000000    -1.406000000
H    -0.951000000    -4.940000000    -1.706000000
H    -1.766000000    -5.172000000    -0.451000000
O    -5.778000000     0.075000000    -1.493000000
H    -5.724000000    -0.829000000    -1.183000000
H    -6.184000000     0.008000000    -2.357000000
O    -1.103000000    -4.142000000     0.977000000
H    -0.492000000    -4.215000000     0.244000000
H    -0.598000000    -3.711000000     1.668000000
O    -1.112000000     5.478000000     2.658000000
H    -0.932000000     5.316000000     1.732000000
H    -0.769000000     4.705000000     3.107000000
O    -4.951000000    -3.409000000    -2.708000000
H    -5.497000000    -3.075000000    -1.996000000
H    -4.129000000    -3.654000000    -2.283000000
O     7.216000000     3.203000000     1.426000000
H     7.592000000     2.366000000     1.701000000
H     7.165000000     3.719000000     2.230000000
O    -2.479000000    -2.023000000     3.633000000
H    -1.735000000    -1.442000000     3.791000000
H    -2.138000000    -2.901000000     3.805000000
O     1.403000000    -4.070000000    -0.139000000
H     2.101000000    -3.961000000     0.506000000
H     1.555000000    -3.373000000    -0.777000000
O     7.262000000     0.176000000    -1.201000000
H     6.707000000     0.729000000    -1.751000000
H     8.106000000     0.628000000    -1.182000000
O    -1.904000000     2.999000000     5.292000000
H    -1.145000000     3.538000000     5.065000000
H    -1.538000000     2.269000000     5.791000000
O    -3.853000000    -3.730000000     1.151000000
H    -2.898000000    -3.776000000     1.107000000
H    -4.079000000    -4.218000000     1.943000000
O     3.715000000     4.078000000     3.216000000
H     3.169000000     3.338000000     2.949000000
H     4.563000000     3.686000000     3.424000000
O     0.552000000    -4.767000000    -5.892000000
H     0.441000000    -4.627000000    -6.832000000
H    -0.338000000    -4.741000000    -5.539000000
O    -5.790000000    -2.438000000    -0.102000000
H    -6.041000000    -1.880000000     0.633000000
H    -5.066000000    -2.966000000     0.234000000
O    -4.352000000     0.039000000     3.043000000
H    -3.762000000    -0.713000000     3.102000000
H    -5.151000000    -0.315000000     2.652000000
O     0.615000000    -2.105000000     2.157000000
H     0.170000000    -1.663000000     2.880000000
H     0.507000000    -1.514000000     1.412000000
O    -3.959000000    -1.876000000    -6.709000000
H    -4.079000000    -1.526000000    -7.592000000
H    -3.604000000    -1.143000000    -6.207000000
O     4.485000000    -1.068000000     3.232000000
H     4.599000000    -0.602000000     2.404000000
H     3.937000000    -0.488000000     3.760000000
O     2.070000000     4.296000000    -0.681000000
H     2.946000000     4.226000000    -0.300000000
H     2.184000000     4.868000000    -1.440000000
O     3.035000000     3.231000000    -4.405000000
H     3.647000000     3.806000000    -3.946000000
H     3.235000000     3.360000000    -5.332000000
O     4.902000000     3.242000000    -0.337000000
H     5.763000000     3.147000000     0.069000000
H     4.363000000     2.572000000     0.083000000
O     3.041000000    -2.112000000    -2.505000000
H     2.581000000    -2.253000000    -3.333000000
H     3.102000000    -1.160000000    -2.425000000
O     2.606000000     2.838000000     6.368000000
H     1.742000000     2.859000000     6.778000000
H     3.187000000     3.246000000     7.010000000
O     2.149000000    -0.510000000     6.933000000
H     2.464000000     0.079000000     6.247000000
H     2.946000000    -0.839000000     7.349000000
O    -3.332000000    -7.323000000    -2.519000000
H    -3.943000000    -7.664000000    -1.866000000
H    -3.036000000    -6.488000000    -2.156000000
O     2.991000000     0.835000000     4.558000000
H     2.807000000     1.217000000     3.700000000
H     2.913000000     1.568000000     5.168000000
O     5.008000000     4.339000000    -2.737000000
H     4.960000000     4.031000000    -1.832000000
H     5.765000000     3.883000000    -3.105000000
O    -2.415000000     2.117000000    -1.488000000
H    -1.722000000     2.680000000    -1.832000000
H    -2.017000000     1.679000000    -0.736000000
O     3.079000000    -3.293000000     2.845000000
H     2.353000000    -2.833000000     2.423000000
H     3.722000000    -2.608000000     3.030000000
O     0.085000000    -3.918000000    -2.792000000
H     0.709000000    -3.558000000    -3.422000000
H    -0.717000000    -3.416000000    -2.936000000
O    -1.290000000     1.770000000    -4.891000000
H    -1.101000000     0.882000000    -5.197000000
H    -0.804000000     1.847000000    -4.070000000
O    -1.007000000     0.922000000     6.816000000
H    -0.734000000     0.103000000     7.229000000
H    -0.853000000     1.590000000     7.484000000
