144
-2831.10948
O     4.333000000     2.579000000     2.706000000
H     4.016000000     3.395000000     2.317000000
H     4.081000000     1.901000000     2.079000000
O     2.530000000    -1.407000000    -3.668000000
H     2.550000000    -2.256000000    -3.226000000
H     2.645000000    -0.768000000    -2.965000000
O     5.783000000    -0.553000000     3.746000000
H     6.728000000    -0.447000000     3.855000000
H     5.412000000     0.276000000     4.048000000
O    -1.780000000    -1.189000000     2.553000000
H    -1.398000000    -1.200000000     1.675000000
H    -2.052000000    -0.281000000     2.685000000
O     0.777000000    -1.227000000    -5.854000000
H    -0.005000000    -1.303000000    -5.307000000
H     1.507000000    -1.287000000    -5.238000000
O     3.798000000    -4.768000000    -0.534000000
H     4.639000000    -4.376000000    -0.768000000
H     3.150000000    -4.105000000    -0.772000000
O     4.325000000    -4.303000000    -3.699000000
H     4.641000000    -3.756000000    -2.980000000
H     5.099000000    -4.461000000    -4.239000000
O     2.763000000    -3.864000000    -5.917000000
H     2.928000000    -4.283000000    -5.072000000
H     2.684000000    -2.932000000    -5.712000000
O    -7.740000000    -1.107000000    -0.634000000
H    -8.480000000    -0.668000000    -0.214000000
H    -7.102000000    -0.409000000    -0.784000000
O     0.903000000     3.704000000    -0.412000000
H     1.303000000     3.046000000     0.157000000
H     0.683000000     4.427000000     0.176000000
O    -4.166000000     2.837000000    -3.360000000
H    -4.338000000     3.233000000    -4.214000000
H    -3.359000000     3.256000000    -3.060000000
O    -2.994000000    -2.606000000    -3.247000000
H    -3.442000000    -1.776000000    -3.408000000
H    -2.726000000    -2.906000000    -4.116000000
O    -0.895000000     1.309000000     4.819000000
H    -0.510000000     1.618000000     5.639000000
H    -0.256000000     1.550000000     4.148000000
O     4.864000000     0.895000000    -2.703000000
H     5.430000000     0.604000000    -3.419000000
H     4.452000000     1.693000000    -3.033000000
O    -1.467000000     3.840000000    -4.573000000
H    -0.566000000     3.943000000    -4.267000000
H    -1.741000000     4.725000000    -4.813000000
O    -0.841000000     0.334000000    -3.967000000
H    -1.300000000     0.258000000    -3.130000000
H    -1.530000000     0.536000000    -4.600000000
O     0.412000000     4.453000000     4.608000000
H     0.823000000     4.161000000     5.421000000
H     0.284000000     3.650000000     4.102000000
O     6.998000000    -4.551000000     2.422000000
H     6.346000000    -3.871000000     2.252000000
H     6.880000000    -5.180000000     1.710000000
O     3.559000000     2.251000000    -0.156000000
H     3.460000000     3.067000000    -0.645000000
H     3.474000000     1.564000000    -0.817000000
O    -6.758000000     1.095000000    -2.684000000
H    -6.855000000     2.029000000    -2.872000000
H    -6.312000000     1.066000000    -1.838000000
O     1.339000000    -4.559000000     3.046000000
H     0.749000000    -4.272000000     2.349000000
H     1.536000000    -5.472000000     2.832000000
O    -4.831000000     4.678000000    -1.005000000
H    -5.711000000     5.049000000    -0.938000000
H    -4.925000000     3.945000000    -1.613000000
O    -0.062000000     6.816000000    -0.779000000
H    -0.087000000     6.674000000     0.167000000
H    -0.165000000     5.942000000    -1.155000000
O     1.123000000    -4.466000000    -2.615000000
H     1.457000000    -5.217000000    -2.124000000
H     1.600000000    -3.716000000    -2.258000000
O     6.853000000    -4.353000000    -1.784000000
H     6.511000000    -3.542000000    -1.408000000
H     6.875000000    -4.967000000    -1.050000000
O    -0.009000000    -3.856000000     0.894000000
H    -0.695000000    -4.002000000     0.243000000
H     0.558000000    -3.193000000     0.501000000
O     1.528000000    -2.330000000     4.783000000
H     1.628000000    -3.037000000     4.146000000
H     0.581000000    -2.243000000     4.898000000
O    -3.235000000     4.691000000     2.782000000
H    -3.551000000     5.452000000     2.296000000
H    -2.859000000     5.057000000     3.583000000
O     1.637000000     0.893000000    -2.668000000
H     0.730000000     0.717000000    -2.915000000
H     1.689000000     1.847000000    -2.614000000
O     6.966000000     0.849000000    -0.556000000
H     6.854000000     1.751000000    -0.253000000
H     6.255000000     0.717000000    -1.183000000
O     3.146000000    -6.742000000    -2.518000000
H     3.625000000    -6.641000000    -1.695000000
H     3.494000000    -6.053000000    -3.084000000
O     4.964000000    -2.731000000     2.529000000
H     5.219000000    -1.865000000     2.848000000
H     4.264000000    -2.558000000     1.900000000
O     5.077000000    -0.970000000    -4.870000000
H     4.999000000    -0.269000000    -5.517000000
H     4.201000000    -1.048000000    -4.494000000
O    -5.489000000    -0.324000000     2.138000000
H    -5.472000000    -1.252000000     2.372000000
H    -4.758000000     0.058000000     2.623000000
O    -1.958000000     1.539000000    -6.141000000
H    -2.214000000     2.160000000    -6.824000000
H    -1.844000000     2.078000000    -5.358000000
O    -3.444000000     0.859000000     3.613000000
H    -2.659000000     1.246000000     4.001000000
H    -4.157000000     1.140000000     4.186000000
O    -5.845000000     1.078000000    -0.004000000
H    -5.413000000     1.854000000     0.355000000
H    -5.710000000     0.401000000     0.659000000
O    -0.695000000    -3.979000000    -4.698000000
H    -0.267000000    -4.671000000    -5.202000000
H    -0.260000000    -4.001000000    -3.845000000
O    -4.025000000    -0.098000000    -3.615000000
H    -4.316000000     0.149000000    -4.493000000
H    -4.460000000     0.526000000    -3.034000000
O    -3.027000000     6.305000000     0.483000000
H    -3.668000000     7.000000000     0.336000000
H    -3.246000000     5.635000000    -0.165000000
O    -4.684000000     3.078000000     1.194000000
H    -3.950000000     3.275000000     1.776000000
H    -4.576000000     3.681000000     0.459000000
O     1.599000000     2.167000000     3.707000000
H     1.890000000     1.551000000     4.380000000
H     2.375000000     2.316000000     3.168000000
O     2.927000000    -6.291000000     1.415000000
H     3.182000000    -5.788000000     0.641000000
H     3.711000000    -6.789000000     1.646000000
O     0.758000000     4.388000000    -2.978000000
H     0.293000000     5.194000000    -3.204000000
H     0.633000000     4.296000000    -2.033000000
O    -0.389000000     5.350000000     1.699000000
H    -0.167000000     5.495000000     2.618000000
H    -1.297000000     5.048000000     1.716000000
O    -1.672000000    -4.071000000    -1.201000000
H    -1.265000000    -4.773000000    -1.709000000
H    -1.909000000    -3.411000000    -1.852000000
O     5.709000000    -1.859000000    -1.113000000
H     6.155000000    -1.092000000    -0.755000000
H     4.795000000    -1.749000000    -0.851000000
O     3.173000000    -0.101000000     4.588000000
H     3.727000000    -0.594000000     3.982000000
H     2.519000000    -0.734000000     4.884000000
