144
-2803.33508
O     4.946000000    -0.730000000    -1.680000000
H     5.624000000    -1.113000000    -1.124000000
H     4.796000000     0.140000000    -1.309000000
O     2.408000000    -2.612000000    -4.329000000
H     2.004000000    -2.046000000    -4.987000000
H     2.497000000    -3.460000000    -4.765000000
O    -2.554000000     1.263000000    -5.072000000
H    -1.691000000     1.459000000    -5.437000000
H    -2.423000000     0.460000000    -4.567000000
O    -1.665000000     0.135000000     6.858000000
H    -0.891000000     0.699000000     6.849000000
H    -1.514000000    -0.490000000     6.148000000
O    -0.611000000    -4.542000000     1.131000000
H    -0.859000000    -3.637000000     0.941000000
H    -1.163000000    -4.790000000     1.873000000
O     5.493000000     3.859000000     4.855000000
H     5.942000000     3.592000000     4.053000000
H     4.582000000     3.985000000     4.589000000
O    -3.420000000    -2.897000000     0.625000000
H    -4.267000000    -2.546000000     0.347000000
H    -3.382000000    -2.714000000     1.564000000
O     3.311000000    -3.016000000    -2.031000000
H     3.979000000    -2.349000000    -1.872000000
H     2.941000000    -2.785000000    -2.883000000
O    -3.215000000     3.685000000     5.382000000
H    -3.740000000     3.570000000     6.174000000
H    -2.729000000     2.865000000     5.296000000
O     1.605000000    -4.960000000    -1.884000000
H     0.969000000    -4.534000000    -2.458000000
H     2.333000000    -4.340000000    -1.832000000
O     3.788000000    -0.615000000     6.962000000
H     3.549000000     0.306000000     7.065000000
H     4.041000000    -0.696000000     6.043000000
O     6.730000000    -0.788000000     0.593000000
H     7.416000000    -1.454000000     0.557000000
H     5.971000000    -1.246000000     0.954000000
O     0.852000000    -1.773000000    -6.110000000
H     0.993000000    -1.611000000    -7.043000000
H    -0.015000000    -2.175000000    -6.066000000
O    -1.820000000    -2.586000000    -5.771000000
H    -2.072000000    -2.324000000    -6.657000000
H    -2.470000000    -2.169000000    -5.205000000
O    -3.887000000     2.384000000     1.900000000
H    -3.030000000     2.589000000     1.527000000
H    -3.692000000     2.016000000     2.762000000
O    -2.809000000     0.802000000     3.831000000
H    -1.908000000     1.012000000     3.587000000
H    -3.005000000    -0.002000000     3.351000000
O     2.432000000    -5.418000000    -5.080000000
H     2.758000000    -6.107000000    -4.500000000
H     1.572000000    -5.729000000    -5.363000000
O    -2.064000000     5.898000000     6.148000000
H    -1.139000000     5.885000000     5.903000000
H    -2.421000000     5.089000000     5.780000000
O     4.340000000     5.183000000    -1.011000000
H     4.307000000     4.762000000    -0.152000000
H     5.264000000     5.153000000    -1.257000000
O    -5.581000000    -1.844000000    -0.476000000
H    -6.316000000    -2.313000000    -0.083000000
H    -5.963000000    -1.030000000    -0.803000000
O     1.083000000     4.150000000     0.192000000
H     1.003000000     3.592000000    -0.582000000
H     0.399000000     3.837000000     0.784000000
O    -6.616000000     0.183000000    -1.877000000
H    -6.416000000     0.889000000    -1.262000000
H    -6.787000000     0.629000000    -2.706000000
O    -0.319000000     2.980000000    -5.321000000
H     0.105000000     3.821000000    -5.150000000
H     0.406000000     2.364000000    -5.430000000
O     3.781000000     3.907000000     1.331000000
H     3.014000000     3.628000000     0.831000000
H     3.511000000     3.832000000     2.246000000
O    -4.904000000    -2.132000000     3.173000000
H    -4.753000000    -3.073000000     3.089000000
H    -4.788000000    -1.953000000     4.106000000
O     3.256000000    -4.232000000     0.567000000
H     2.987000000    -4.102000000    -0.342000000
H     3.995000000    -3.636000000     0.686000000
O    -1.084000000    -4.701000000    -3.658000000
H    -0.897000000    -3.967000000    -4.244000000
H    -2.021000000    -4.630000000    -3.477000000
O     2.994000000     1.812000000     6.519000000
H     2.071000000     1.867000000     6.274000000
H     3.117000000     2.522000000     7.149000000
O    -1.475000000     3.892000000     1.467000000
H    -2.061000000     4.563000000     1.817000000
H    -1.150000000     3.430000000     2.240000000
O    -3.922000000    -4.146000000    -2.934000000
H    -4.053000000    -3.198000000    -2.898000000
H    -3.653000000    -4.384000000    -2.047000000
O     3.329000000    -2.517000000     4.281000000
H     2.769000000    -3.171000000     3.862000000
H     3.888000000    -3.024000000     4.871000000
O     1.493000000     4.889000000     6.314000000
H     1.405000000     5.830000000     6.165000000
H     2.310000000     4.799000000     6.804000000
O     0.163000000     2.255000000     5.830000000
H    -0.129000000     2.270000000     4.918000000
H     0.295000000     3.176000000     6.055000000
O     4.516000000     0.761000000     3.141000000
H     4.845000000    -0.013000000     3.598000000
H     3.564000000     0.662000000     3.157000000
O    -3.883000000    -5.429000000    -0.295000000
H    -4.584000000    -5.552000000     0.345000000
H    -3.583000000    -4.531000000    -0.152000000
O    -3.522000000    -1.275000000    -3.951000000
H    -4.399000000    -1.378000000    -4.321000000
H    -3.674000000    -0.940000000    -3.067000000
O    -1.868000000     3.651000000    -1.610000000
H    -1.065000000     3.258000000    -1.950000000
H    -1.644000000     3.924000000    -0.720000000
O     6.674000000     2.540000000     2.407000000
H     5.742000000     2.344000000     2.505000000
H     7.117000000     1.738000000     2.683000000
O     2.977000000     3.913000000     4.028000000
H     2.630000000     3.032000000     3.885000000
H     2.396000000     4.295000000     4.685000000
O     0.581000000     6.716000000     2.431000000
H     0.168000000     5.909000000     2.123000000
H     0.409000000     7.352000000     1.737000000
O    -0.853000000    -1.938000000     2.822000000
H    -0.689000000    -1.484000000     1.996000000
H    -0.093000000    -1.730000000     3.365000000
O     3.745000000     0.311000000    -4.456000000
H     3.810000000    -0.235000000    -5.239000000
H     3.853000000    -0.301000000    -3.728000000
O     1.158000000    -0.996000000     4.232000000
H     1.987000000    -1.475000000     4.233000000
H     1.387000000    -0.124000000     3.909000000
O     5.409000000     1.424000000     0.015000000
H     5.486000000     2.193000000     0.580000000
H     5.776000000     0.708000000     0.534000000
O    -5.846000000     2.510000000    -0.334000000
H    -5.240000000     2.633000000    -1.065000000
H    -5.280000000     2.368000000     0.425000000
O    -0.443000000    -6.462000000    -0.549000000
H    -0.567000000    -5.787000000     0.118000000
H     0.279000000    -6.138000000    -1.087000000
O    -4.335000000     2.428000000    -2.493000000
H    -4.072000000     2.256000000    -3.397000000
H    -3.514000000     2.613000000    -2.036000000
O     0.580000000     2.736000000    -2.142000000
H     1.008000000     3.217000000    -2.850000000
H     0.907000000     1.841000000    -2.229000000
