144
-2820.56759
O    -1.153000000    -5.672000000    -4.968000000
H    -1.837000000    -5.022000000    -4.806000000
H    -1.088000000    -6.161000000    -4.147000000
O     4.734000000    -0.264000000     6.947000000
H     5.180000000    -0.444000000     6.119000000
H     5.116000000    -0.886000000     7.566000000
O    -1.640000000    -3.270000000    -6.225000000
H    -0.719000000    -3.490000000    -6.082000000
H    -1.625000000    -2.362000000    -6.528000000
O    -1.788000000    -0.604000000    -6.944000000
H    -1.281000000     0.146000000    -7.256000000
H    -2.220000000    -0.286000000    -6.151000000
O    -6.109000000     2.691000000    -0.574000000
H    -6.233000000     3.640000000    -0.563000000
H    -5.356000000     2.554000000    -1.150000000
O     4.577000000    -4.234000000    -2.671000000
H     4.003000000    -4.807000000    -3.179000000
H     4.117000000    -3.395000000    -2.646000000
O     2.230000000     0.835000000     6.069000000
H     2.128000000     0.685000000     5.129000000
H     3.150000000     0.637000000     6.245000000
O     0.456000000    -3.535000000    -3.791000000
H     0.166000000    -4.365000000    -4.169000000
H    -0.354000000    -3.073000000    -3.578000000
O    -4.199000000     0.231000000     3.689000000
H    -3.493000000     0.817000000     3.961000000
H    -3.895000000    -0.642000000     3.937000000
O    -1.269000000    -0.885000000     4.921000000
H    -0.583000000    -1.454000000     5.269000000
H    -0.806000000    -0.276000000     4.346000000
O     3.136000000    -2.132000000    -3.253000000
H     2.420000000    -2.190000000    -3.885000000
H     3.393000000    -1.210000000    -3.267000000
O     4.162000000     1.696000000     0.622000000
H     4.047000000     1.627000000     1.570000000
H     5.092000000     1.892000000     0.508000000
O     2.944000000     4.484000000     4.064000000
H     2.347000000     4.467000000     3.316000000
H     2.405000000     4.211000000     4.807000000
O    -1.370000000    -3.804000000    -1.413000000
H    -1.825000000    -3.232000000    -0.794000000
H    -0.476000000    -3.858000000    -1.076000000
O     4.202000000    -3.382000000     0.247000000
H     4.813000000    -2.777000000     0.669000000
H     4.466000000    -3.385000000    -0.673000000
O    -4.586000000    -0.199000000    -2.537000000
H    -5.340000000    -0.413000000    -3.086000000
H    -4.498000000    -0.949000000    -1.948000000
O    -0.207000000     3.623000000    -0.650000000
H    -0.039000000     2.680000000    -0.667000000
H     0.396000000     3.985000000    -1.299000000
O     5.760000000    -0.077000000     4.468000000
H     5.186000000     0.651000000     4.231000000
H     6.641000000     0.296000000     4.445000000
O     2.141000000    -0.049000000    -6.194000000
H     2.637000000     0.396000000    -5.507000000
H     2.707000000    -0.007000000    -6.964000000
O     1.404000000    -2.748000000    -6.183000000
H     1.070000000    -2.791000000    -5.287000000
H     1.513000000    -1.813000000    -6.355000000
O     6.027000000    -1.987000000     1.588000000
H     5.368000000    -1.504000000     2.086000000
H     6.629000000    -2.324000000     2.251000000
O    -4.925000000    -3.648000000    -2.537000000
H    -4.487000000    -3.918000000    -1.729000000
H    -5.723000000    -4.177000000    -2.565000000
O    -2.269000000     2.122000000     4.403000000
H    -1.987000000     2.959000000     4.772000000
H    -1.456000000     1.643000000     4.245000000
O    -4.577000000    -2.853000000     1.907000000
H    -5.153000000    -2.090000000     1.857000000
H    -3.709000000    -2.512000000     1.694000000
O     3.758000000     1.860000000     3.331000000
H     2.998000000     1.304000000     3.163000000
H     3.387000000     2.691000000     3.628000000
O     3.894000000    -1.840000000     3.401000000
H     3.158000000    -1.228000000     3.375000000
H     4.566000000    -1.385000000     3.907000000
O     2.920000000     2.896000000    -4.635000000
H     3.832000000     2.657000000    -4.804000000
H     2.539000000     3.016000000    -5.504000000
O     0.569000000    -5.204000000     0.337000000
H     0.952000000    -6.061000000     0.147000000
H     1.146000000    -4.826000000     1.000000000
O    -3.860000000     2.542000000    -2.253000000
H    -3.444000000     2.859000000    -3.055000000
H    -4.050000000     1.621000000    -2.430000000
O    -2.003000000     4.603000000     5.728000000
H    -1.985000000     4.512000000     6.680000000
H    -1.203000000     5.084000000     5.517000000
O     0.048000000     1.026000000    -7.598000000
H     0.706000000     1.335000000    -8.220000000
H     0.555000000     0.704000000    -6.853000000
O     2.207000000     1.716000000    -1.494000000
H     1.641000000     1.087000000    -1.047000000
H     3.037000000     1.671000000    -1.020000000
O     2.321000000    -4.230000000     2.062000000
H     2.799000000    -4.680000000     2.758000000
H     2.997000000    -3.767000000     1.567000000
O     1.522000000     4.153000000    -2.535000000
H     1.741000000     4.102000000    -3.465000000
H     1.755000000     3.292000000    -2.186000000
O    -0.029000000     4.075000000     2.197000000
H    -0.272000000     3.150000000     2.219000000
H     0.109000000     4.265000000     1.269000000
O     0.172000000     5.951000000     4.491000000
H    -0.080000000     6.804000000     4.137000000
H     0.181000000     5.369000000     3.731000000
O    -3.013000000     0.621000000    -4.995000000
H    -3.188000000     1.542000000    -5.186000000
H    -3.376000000     0.485000000    -4.119000000
O    -1.714000000    -2.110000000     1.360000000
H    -1.107000000    -2.360000000     2.056000000
H    -1.285000000    -1.375000000     0.921000000
O    -4.897000000     3.082000000     4.880000000
H    -4.001000000     2.786000000     4.723000000
H    -4.942000000     3.216000000     5.827000000
O     4.329000000    -4.427000000     4.121000000
H     4.769000000    -4.549000000     3.280000000
H     4.024000000    -3.519000000     4.103000000
O     1.094000000    -1.715000000     6.141000000
H     1.819000000    -2.300000000     6.360000000
H     1.448000000    -0.835000000     6.272000000
O    -2.909000000     3.428000000    -4.594000000
H    -2.002000000     3.680000000    -4.768000000
H    -3.422000000     3.927000000    -5.231000000
O    -0.417000000     0.709000000     7.201000000
H     0.473000000     0.813000000     6.864000000
H    -0.907000000     0.329000000     6.471000000
O    -5.688000000    -0.268000000     1.594000000
H    -6.331000000     0.441000000     1.623000000
H    -5.041000000    -0.032000000     2.258000000
O     0.513000000    -2.660000000     3.219000000
H     1.212000000    -2.092000000     3.542000000
H     0.966000000    -3.439000000     2.897000000
O    -2.613000000     4.806000000    -0.788000000
H    -3.025000000     3.980000000    -1.040000000
H    -1.674000000     4.641000000    -0.874000000
O    -3.527000000    -2.261000000     4.963000000
H    -3.443000000    -3.168000000     4.667000000
H    -2.640000000    -1.906000000     4.902000000
O     3.684000000     0.466000000    -3.680000000
H     3.079000000     1.188000000    -3.506000000
H     4.490000000     0.894000000    -3.970000000
