144
-2818.73684
O    -1.377000000     1.116000000     4.481000000
H    -0.614000000     0.807000000     4.969000000
H    -1.438000000     0.524000000     3.731000000
O    -4.440000000     5.423000000    -1.830000000
H    -4.555000000     4.875000000    -1.054000000
H    -4.843000000     4.923000000    -2.539000000
O     7.785000000     1.350000000     4.436000000
H     7.372000000     0.757000000     5.064000000
H     7.070000000     1.627000000     3.862000000
O    -3.828000000    -0.564000000     2.915000000
H    -2.959000000    -0.845000000     2.629000000
H    -3.835000000    -0.729000000     3.858000000
O    -6.295000000    -2.716000000     1.700000000
H    -5.859000000    -2.259000000     0.980000000
H    -6.248000000    -3.641000000     1.459000000
O    -5.256000000     2.075000000    -1.900000000
H    -4.514000000     2.526000000    -2.303000000
H    -5.844000000     2.778000000    -1.626000000
O     1.038000000    -0.300000000     4.667000000
H     1.505000000     0.503000000     4.901000000
H     1.592000000    -0.715000000     4.006000000
O    -1.109000000     5.280000000     2.369000000
H    -0.321000000     4.738000000     2.395000000
H    -1.622000000     4.994000000     3.125000000
O    -4.449000000     3.919000000     0.252000000
H    -5.326000000     4.199000000     0.513000000
H    -4.347000000     3.053000000     0.647000000
O     4.949000000    -0.610000000     3.981000000
H     5.318000000     0.045000000     3.389000000
H     4.265000000    -1.039000000     3.467000000
O     5.587000000    -3.126000000    -1.709000000
H     6.538000000    -3.233000000    -1.686000000
H     5.245000000    -3.962000000    -1.392000000
O     8.048000000     2.670000000     1.461000000
H     7.816000000     1.743000000     1.414000000
H     7.357000000     3.063000000     1.994000000
O     1.363000000    -4.201000000     1.074000000
H     0.857000000    -4.350000000     1.873000000
H     0.899000000    -4.700000000     0.401000000
O     2.072000000     2.172000000     4.988000000
H     2.026000000     3.092000000     5.247000000
H     2.111000000     2.194000000     4.032000000
O     3.583000000    -2.650000000    -4.314000000
H     4.183000000    -2.057000000    -4.767000000
H     4.152000000    -3.311000000    -3.921000000
O     1.069000000    -1.032000000    -4.126000000
H     1.651000000    -0.272000000    -4.132000000
H     1.658000000    -1.786000000    -4.133000000
O     2.595000000     0.968000000    -3.392000000
H     3.170000000     0.390000000    -2.891000000
H     2.891000000     1.851000000    -3.170000000
O    -0.211000000    -5.559000000    -0.571000000
H    -0.750000000    -4.944000000    -1.069000000
H     0.045000000    -6.224000000    -1.209000000
O    -4.109000000    -3.486000000    -1.699000000
H    -4.446000000    -4.110000000    -1.056000000
H    -4.870000000    -3.259000000    -2.234000000
O     4.993000000     2.672000000     0.047000000
H     5.171000000     3.156000000     0.854000000
H     4.619000000     1.842000000     0.344000000
O    -2.595000000    -3.436000000     0.803000000
H    -3.215000000    -4.101000000     1.104000000
H    -3.016000000    -3.046000000     0.036000000
O    -8.023000000    -0.239000000     1.029000000
H    -7.157000000    -0.328000000     0.632000000
H    -8.493000000    -1.028000000     0.759000000
O     6.683000000     1.513000000    -1.720000000
H     6.018000000     0.854000000    -1.920000000
H     6.310000000     2.017000000    -0.997000000
O     4.608000000    -0.379000000    -1.479000000
H     4.932000000    -1.211000000    -1.824000000
H     4.216000000    -0.605000000    -0.636000000
O     2.000000000    -4.318000000    -5.643000000
H     1.660000000    -3.436000000    -5.794000000
H     2.686000000    -4.202000000    -4.986000000
O     3.307000000    -6.311000000     0.885000000
H     2.758000000    -5.529000000     0.838000000
H     2.779000000    -6.946000000     1.369000000
O    -7.576000000    -2.977000000    -2.476000000
H    -7.148000000    -2.143000000    -2.672000000
H    -8.372000000    -2.733000000    -2.005000000
O     2.748000000    -2.019000000     2.817000000
H     2.808000000    -2.764000000     3.415000000
H     2.818000000    -2.405000000     1.944000000
O    -2.866000000     2.199000000    -6.422000000
H    -3.281000000     1.676000000    -7.108000000
H    -2.189000000     1.626000000    -6.061000000
O    -0.780000000    -4.581000000     2.753000000
H    -1.124000000    -4.699000000     3.639000000
H    -1.424000000    -4.023000000     2.318000000
O     4.143000000     4.449000000     4.501000000
H     3.312000000     4.742000000     4.127000000
H     4.331000000     5.084000000     5.193000000
O     6.450000000     0.262000000     1.272000000
H     6.929000000    -0.305000000     0.667000000
H     5.530000000     0.139000000     1.038000000
O     1.410000000     5.576000000    -0.386000000
H     1.687000000     5.682000000    -1.296000000
H     0.773000000     4.862000000    -0.411000000
O    -5.752000000    -0.604000000    -0.297000000
H    -5.093000000     0.089000000    -0.244000000
H    -5.928000000    -0.695000000    -1.234000000
O     7.759000000    -0.976000000    -0.595000000
H     7.860000000    -1.836000000    -1.003000000
H     7.583000000    -0.384000000    -1.326000000
O    -1.304000000    -1.450000000     2.271000000
H    -0.459000000    -1.107000000     1.979000000
H    -1.559000000    -2.071000000     1.589000000
O    -1.806000000    -4.723000000    -2.747000000
H    -1.549000000    -4.593000000    -3.660000000
H    -2.576000000    -4.165000000    -2.633000000
O     1.585000000     4.298000000     2.286000000
H     2.173000000     4.938000000     1.885000000
H     2.023000000     3.456000000     2.158000000
O     0.213000000     1.242000000    -5.789000000
H     0.787000000     2.000000000    -5.680000000
H     0.344000000     0.726000000    -4.994000000
O     5.196000000     2.321000000     3.079000000
H     4.427000000     2.062000000     2.572000000
H     4.899000000     3.066000000     3.602000000
O    -0.914000000    -2.171000000    -7.091000000
H    -1.120000000    -2.263000000    -6.161000000
H    -0.138000000    -1.610000000    -7.109000000
O    -1.925000000     4.709000000    -0.045000000
H    -2.804000000     4.336000000     0.027000000
H    -1.736000000     5.049000000     0.829000000
O    -4.887000000     1.509000000     1.434000000
H    -4.481000000     0.779000000     1.903000000
H    -5.729000000     1.636000000     1.872000000
O    -6.140000000    -0.508000000    -2.977000000
H    -5.963000000     0.413000000    -2.786000000
H    -6.568000000    -0.497000000    -3.833000000
O     3.986000000     0.709000000     6.156000000
H     3.208000000     1.170000000     5.843000000
H     4.348000000     0.292000000     5.373000000
O    -0.971000000     3.744000000     4.758000000
H    -0.038000000     3.640000000     4.944000000
H    -1.295000000     2.850000000     4.651000000
O     0.218000000     3.475000000    -1.583000000
H     0.598000000     2.658000000    -1.260000000
H    -0.640000000     3.524000000    -1.161000000
O     3.246000000     3.470000000    -2.216000000
H     2.418000000     3.631000000    -1.764000000
H     3.854000000     3.220000000    -1.520000000
