144
-2795.14930
O    -1.369000000    -3.066000000     1.695000000
H    -0.684000000    -3.200000000     1.041000000
H    -1.170000000    -3.701000000     2.383000000
O     4.462000000    -1.272000000     5.719000000
H     4.741000000    -0.904000000     4.880000000
H     4.933000000    -2.103000000     5.784000000
O    -6.920000000     1.339000000    -0.271000000
H    -7.598000000     0.797000000    -0.674000000
H    -7.206000000     1.445000000     0.636000000
O     6.688000000     3.202000000     2.377000000
H     6.769000000     2.712000000     1.559000000
H     5.908000000     2.839000000     2.797000000
O    -4.757000000     0.975000000     2.736000000
H    -3.969000000     1.303000000     3.170000000
H    -4.920000000     1.602000000     2.031000000
O    -3.295000000    -2.481000000     5.380000000
H    -2.736000000    -1.898000000     4.866000000
H    -2.728000000    -3.217000000     5.610000000
O    -1.533000000    -0.893000000     3.095000000
H    -1.636000000    -1.807000000     2.829000000
H    -1.014000000    -0.497000000     2.395000000
O     5.386000000     5.511000000     0.187000000
H     6.246000000     5.091000000     0.192000000
H     4.778000000     4.809000000    -0.046000000
O     4.098000000    -4.302000000    -0.706000000
H     4.445000000    -3.666000000    -1.331000000
H     4.825000000    -4.471000000    -0.107000000
O     0.229000000     2.547000000     4.567000000
H    -0.059000000     2.269000000     5.437000000
H     0.896000000     1.906000000     4.320000000
O    -1.183000000     0.157000000     5.833000000
H    -1.005000000    -0.568000000     6.431000000
H    -0.815000000    -0.127000000     4.996000000
O     6.052000000    -1.373000000     0.835000000
H     5.285000000    -1.073000000     0.348000000
H     6.063000000    -2.322000000     0.704000000
O    -1.788000000     1.903000000    -3.617000000
H    -2.082000000     1.239000000    -4.240000000
H    -1.844000000     2.727000000    -4.101000000
O    -2.612000000     1.710000000     4.149000000
H    -2.589000000     0.826000000     4.516000000
H    -1.697000000     1.989000000     4.142000000
O     0.929000000    -4.174000000     0.441000000
H     1.491000000    -4.949000000     0.445000000
H     0.355000000    -4.299000000    -0.314000000
O     2.899000000    -2.657000000     1.760000000
H     2.275000000    -3.216000000     1.297000000
H     3.108000000    -1.963000000     1.136000000
O     6.913000000     2.986000000    -1.793000000
H     6.050000000     3.141000000    -2.177000000
H     6.729000000     2.688000000    -0.902000000
O     2.517000000     1.225000000     3.835000000
H     3.345000000     1.530000000     4.205000000
H     2.661000000     1.230000000     2.889000000
O     2.667000000    -3.766000000    -4.062000000
H     2.038000000    -3.974000000    -3.371000000
H     3.105000000    -2.971000000    -3.756000000
O    -1.274000000     4.721000000     4.608000000
H    -1.056000000     3.810000000     4.801000000
H    -1.529000000     4.716000000     3.685000000
O     1.816000000    -5.895000000    -2.215000000
H     2.650000000    -5.812000000    -1.753000000
H     1.715000000    -6.836000000    -2.358000000
O     4.337000000     3.158000000    -2.444000000
H     3.906000000     2.741000000    -3.190000000
H     3.623000000     3.554000000    -1.945000000
O    -4.687000000     3.365000000     1.329000000
H    -3.871000000     3.364000000     1.830000000
H    -4.447000000     3.734000000     0.479000000
O     8.084000000     0.161000000    -1.144000000
H     7.685000000    -0.410000000    -1.801000000
H     7.877000000     1.048000000    -1.440000000
O    -7.467000000    -2.306000000    -1.211000000
H    -7.157000000    -2.195000000    -2.109000000
H    -8.014000000    -1.538000000    -1.049000000
O     6.778000000    -1.191000000    -3.228000000
H     7.187000000    -2.028000000    -3.449000000
H     7.048000000    -0.599000000    -3.930000000
O     4.119000000    -1.413000000    -2.359000000
H     5.040000000    -1.151000000    -2.343000000
H     3.873000000    -1.476000000    -1.436000000
O    -2.700000000    -4.294000000    -3.899000000
H    -3.375000000    -4.275000000    -3.221000000
H    -2.765000000    -3.440000000    -4.326000000
O    -0.626000000    -4.922000000    -1.730000000
H    -1.087000000    -4.867000000    -2.567000000
H     0.254000000    -5.219000000    -1.961000000
O    -4.251000000    -3.095000000    -1.897000000
H    -4.032000000    -2.242000000    -2.272000000
H    -5.095000000    -3.319000000    -2.289000000
O     3.840000000     4.904000000     4.622000000
H     4.379000000     4.139000000     4.418000000
H     2.998000000     4.722000000     4.204000000
O     5.059000000     2.192000000     4.403000000
H     5.061000000     1.337000000     3.972000000
H     5.568000000     2.058000000     5.203000000
O     6.258000000     1.273000000     0.406000000
H     5.308000000     1.156000000     0.386000000
H     6.604000000     0.395000000     0.569000000
O    -5.350000000     1.671000000    -5.307000000
H    -5.028000000     1.626000000    -4.406000000
H    -5.301000000     0.769000000    -5.624000000
O    -5.187000000     1.729000000    -2.497000000
H    -5.982000000     1.599000000    -1.980000000
H    -4.618000000     2.254000000    -1.934000000
O    -6.613000000    -0.799000000     3.501000000
H    -5.917000000    -0.153000000     3.385000000
H    -6.887000000    -1.019000000     2.611000000
O     5.627000000    -0.169000000     3.164000000
H     5.167000000    -0.542000000     2.412000000
H     6.499000000    -0.563000000     3.131000000
O    -3.094000000    -6.508000000    -0.424000000
H    -2.760000000    -6.736000000     0.444000000
H    -2.422000000    -5.937000000    -0.796000000
O    -4.026000000    -0.779000000    -3.399000000
H    -3.927000000     0.170000000    -3.329000000
H    -4.350000000    -0.922000000    -4.289000000
O    -1.779000000     4.517000000     1.835000000
H    -1.515000000     3.951000000     1.110000000
H    -2.284000000     5.217000000     1.422000000
O     0.658000000     0.679000000    -3.624000000
H    -0.092000000     1.268000000    -3.544000000
H     0.552000000     0.058000000    -2.904000000
O     3.618000000     3.643000000     0.358000000
H     3.845000000     2.729000000     0.526000000
H     2.989000000     3.863000000     1.046000000
O     4.061000000    -4.516000000     3.601000000
H     3.592000000    -5.018000000     4.268000000
H     3.380000000    -4.008000000     3.160000000
O    -2.760000000     3.174000000    -1.461000000
H    -2.737000000     3.325000000    -2.406000000
H    -1.947000000     2.704000000    -1.275000000
O     1.551000000    -1.473000000     4.097000000
H     1.872000000    -0.589000000     4.280000000
H     1.703000000    -1.594000000     3.160000000
O    -4.483000000    -3.615000000     0.724000000
H    -3.637000000    -3.362000000     1.095000000
H    -4.394000000    -3.446000000    -0.213000000
O     1.787000000     4.560000000     2.726000000
H     0.991000000     4.273000000     3.173000000
H     1.572000000     5.431000000     2.391000000
O     3.565000000     0.770000000    -4.019000000
H     3.632000000    -0.140000000    -3.731000000
H     2.740000000     1.080000000    -3.644000000
