144
-2805.44730
O    -2.428000000    -1.825000000     2.026000000
H    -3.237000000    -1.783000000     1.517000000
H    -1.975000000    -2.600000000     1.692000000
O    -7.449000000     0.757000000     1.257000000
H    -6.983000000     0.565000000     2.071000000
H    -7.125000000     0.105000000     0.636000000
O    -6.002000000     0.041000000    -3.415000000
H    -5.204000000    -0.477000000    -3.305000000
H    -6.169000000     0.025000000    -4.357000000
O    -3.406000000     5.146000000    -4.414000000
H    -3.680000000     4.306000000    -4.047000000
H    -4.006000000     5.783000000    -4.027000000
O     2.023000000    -2.958000000     3.852000000
H     2.143000000    -2.136000000     3.376000000
H     2.065000000    -3.634000000     3.176000000
O     6.316000000     2.600000000    -0.034000000
H     7.129000000     2.130000000     0.156000000
H     5.636000000     2.086000000     0.402000000
O    -2.423000000     0.637000000     3.415000000
H    -1.537000000     0.999000000     3.433000000
H    -2.334000000    -0.188000000     2.938000000
O     1.399000000     0.624000000     6.399000000
H     0.963000000     0.926000000     5.602000000
H     1.950000000    -0.103000000     6.108000000
O     6.876000000    -1.726000000     3.917000000
H     6.735000000    -1.688000000     2.970000000
H     6.903000000    -2.662000000     4.117000000
O    -4.594000000     1.418000000     1.954000000
H    -4.486000000     2.353000000     2.128000000
H    -3.979000000     0.990000000     2.549000000
O    -4.055000000     4.727000000    -0.108000000
H    -4.335000000     5.547000000    -0.513000000
H    -3.125000000     4.658000000    -0.325000000
O    -2.225000000    -3.432000000    -0.485000000
H    -1.912000000    -3.944000000    -1.231000000
H    -2.259000000    -2.532000000    -0.810000000
O     2.847000000    -4.159000000     1.229000000
H     3.175000000    -4.784000000     0.582000000
H     2.964000000    -3.303000000     0.816000000
O    -0.353000000    -6.112000000     0.282000000
H    -0.751000000    -5.348000000    -0.134000000
H     0.036000000    -6.604000000    -0.441000000
O     4.929000000     1.724000000    -2.328000000
H     4.338000000     2.431000000    -2.073000000
H     5.659000000     1.787000000    -1.711000000
O     1.398000000    -5.638000000     2.755000000
H     1.843000000    -4.984000000     2.216000000
H     1.540000000    -6.465000000     2.294000000
O     3.583000000     5.724000000     3.350000000
H     3.427000000     4.786000000     3.245000000
H     4.471000000     5.858000000     3.018000000
O    -0.694000000     5.290000000    -4.008000000
H    -1.649000000     5.277000000    -3.942000000
H    -0.430000000     4.386000000    -3.841000000
O     3.333000000    -0.204000000     4.500000000
H     3.748000000    -0.918000000     4.984000000
H     2.922000000    -0.631000000     3.748000000
O     4.629000000    -3.579000000    -1.323000000
H     4.937000000    -3.065000000    -2.070000000
H     4.240000000    -2.934000000    -0.732000000
O     0.279000000     4.726000000     1.938000000
H     0.049000000     4.721000000     2.867000000
H     0.530000000     5.632000000     1.758000000
O    -0.800000000    -4.472000000    -2.247000000
H    -0.159000000    -5.083000000    -2.609000000
H    -0.627000000    -3.647000000    -2.701000000
O    -5.152000000     1.577000000     4.943000000
H    -4.318000000     1.627000000     4.476000000
H    -5.473000000     2.479000000     4.956000000
O     2.032000000     1.985000000    -1.978000000
H     2.165000000     2.665000000    -1.318000000
H     1.140000000     1.672000000    -1.823000000
O     3.977000000    -0.918000000    -2.531000000
H     4.203000000    -0.035000000    -2.238000000
H     3.632000000    -1.349000000    -1.749000000
O    -2.805000000    -1.780000000    -5.260000000
H    -3.081000000    -1.114000000    -5.889000000
H    -3.041000000    -2.611000000    -5.673000000
O    -0.143000000    -2.529000000    -4.124000000
H    -0.799000000    -2.216000000    -4.747000000
H     0.525000000    -1.843000000    -4.115000000
O    -3.754000000    -1.405000000    -2.783000000
H    -3.091000000    -1.651000000    -3.428000000
H    -4.368000000    -2.140000000    -2.780000000
O     6.014000000    -2.572000000    -3.772000000
H     6.592000000    -2.101000000    -4.373000000
H     5.207000000    -2.058000000    -3.763000000
O    -4.514000000     4.000000000     2.683000000
H    -5.247000000     3.925000000     3.295000000
H    -3.937000000     4.652000000     3.081000000
O    -1.241000000     4.592000000    -0.586000000
H    -0.836000000     4.693000000     0.276000000
H    -0.648000000     4.010000000    -1.062000000
O     5.862000000    -1.833000000     1.296000000
H     4.921000000    -1.972000000     1.406000000
H     5.965000000    -1.612000000     0.371000000
O    -3.367000000    -1.071000000     5.272000000
H    -3.270000000    -0.467000000     4.536000000
H    -3.785000000    -0.549000000     5.957000000
O     4.538000000     1.552000000     6.105000000
H     4.863000000     1.138000000     6.904000000
H     4.257000000     0.821000000     5.554000000
O    -4.050000000     2.502000000    -2.990000000
H    -4.633000000     1.871000000    -3.412000000
H    -4.368000000     2.557000000    -2.089000000
O    -5.281000000     2.511000000    -0.556000000
H    -5.208000000     1.857000000     0.139000000
H    -4.691000000     3.215000000    -0.285000000
O    -1.082000000     4.717000000     4.752000000
H    -1.998000000     4.450000000     4.827000000
H    -0.858000000     5.052000000     5.620000000
O    -4.461000000    -1.612000000     0.159000000
H    -4.145000000    -1.766000000    -0.732000000
H    -5.414000000    -1.602000000     0.076000000
O    -7.507000000     1.452000000    -1.600000000
H    -7.082000000     0.806000000    -2.165000000
H    -6.783000000     1.954000000    -1.225000000
O     2.013000000     3.577000000     0.329000000
H     1.218000000     3.858000000     0.781000000
H     2.597000000     3.287000000     1.029000000
O     0.054000000     1.469000000    -5.493000000
H     0.389000000     2.257000000    -5.920000000
H    -0.453000000     1.025000000    -6.174000000
O     4.423000000     1.385000000     1.456000000
H     3.986000000     0.539000000     1.550000000
H     5.033000000     1.423000000     2.193000000
O     4.896000000    -4.972000000     3.216000000
H     5.121000000    -5.765000000     2.728000000
H     4.234000000    -4.539000000     2.677000000
O     0.512000000     2.391000000     4.343000000
H     1.294000000     2.784000000     3.956000000
H    -0.089000000     3.125000000     4.466000000
O    -0.758000000     2.585000000    -3.049000000
H    -1.670000000     2.365000000    -2.860000000
H    -0.586000000     2.183000000    -3.901000000
O     1.601000000    -4.018000000     6.332000000
H     0.682000000    -3.865000000     6.554000000
H     1.681000000    -3.720000000     5.426000000
O     2.922000000     2.960000000     3.343000000
H     3.219000000     2.825000000     4.243000000
H     3.534000000     2.453000000     2.810000000
O     1.928000000    -0.435000000    -4.454000000
H     2.521000000    -0.332000000    -3.709000000
H     1.414000000     0.373000000    -4.465000000
