144
-2831.96506
O    -2.099000000    -1.460000000     4.073000000
H    -1.407000000    -0.991000000     3.608000000
H    -2.031000000    -2.361000000     3.759000000
O     7.500000000    -4.081000000     1.829000000
H     7.836000000    -3.758000000     2.665000000
H     6.968000000    -3.361000000     1.491000000
O     4.908000000    -4.237000000    -0.918000000
H     4.263000000    -4.274000000    -1.624000000
H     4.462000000    -3.773000000    -0.209000000
O    -5.267000000    -4.385000000     1.917000000
H    -5.354000000    -3.464000000     2.163000000
H    -5.815000000    -4.477000000     1.137000000
O    -2.707000000    -5.843000000     1.608000000
H    -2.902000000    -6.448000000     0.893000000
H    -3.547000000    -5.431000000     1.810000000
O    -7.058000000     0.462000000    -2.372000000
H    -6.558000000     1.247000000    -2.147000000
H    -6.932000000     0.359000000    -3.315000000
O    -6.814000000    -2.303000000     2.916000000
H    -6.467000000    -1.770000000     3.631000000
H    -6.771000000    -1.733000000     2.149000000
O     0.068000000    -0.061000000     2.872000000
H     0.374000000     0.795000000     3.172000000
H     0.180000000    -0.036000000     1.922000000
O    -4.603000000     1.732000000     2.989000000
H    -3.954000000     2.204000000     2.467000000
H    -4.428000000     2.003000000     3.890000000
O    -1.754000000     2.783000000     3.520000000
H    -0.850000000     2.809000000     3.209000000
H    -2.261000000     3.191000000     2.819000000
O    -6.460000000     2.929000000     1.050000000
H    -5.891000000     2.620000000     1.755000000
H    -5.984000000     3.664000000     0.664000000
O    -0.680000000    -4.202000000    -3.125000000
H    -0.079000000    -4.548000000    -2.464000000
H    -0.245000000    -3.416000000    -3.456000000
O     3.387000000    -3.198000000     1.248000000
H     2.631000000    -3.234000000     1.834000000
H     3.293000000    -2.365000000     0.787000000
O     0.500000000    -5.709000000    -1.088000000
H     0.742000000    -6.559000000    -0.721000000
H    -0.304000000    -5.469000000    -0.627000000
O     6.077000000     3.393000000    -2.583000000
H     6.557000000     3.699000000    -1.813000000
H     5.295000000     3.944000000    -2.613000000
O    -1.566000000     4.851000000    -4.073000000
H    -2.383000000     5.345000000    -4.005000000
H    -1.754000000     4.018000000    -3.640000000
O     5.260000000    -4.309000000    -4.127000000
H     5.335000000    -4.138000000    -5.065000000
H     5.225000000    -3.440000000    -3.727000000
O     3.883000000     1.453000000     3.205000000
H     3.949000000     0.499000000     3.262000000
H     4.690000000     1.722000000     2.767000000
O     3.765000000    -2.014000000    -3.110000000
H     2.992000000    -2.575000000    -3.048000000
H     3.928000000    -1.730000000    -2.210000000
O    -6.418000000    -0.017000000     5.051000000
H    -5.466000000     0.041000000     4.967000000
H    -6.735000000     0.848000000     4.792000000
O     0.488000000     4.681000000    -0.783000000
H     0.281000000     5.606000000    -0.911000000
H     1.295000000     4.686000000    -0.267000000
O     0.543000000    -1.908000000    -4.478000000
H     1.274000000    -2.084000000    -5.070000000
H     0.622000000    -0.977000000    -4.270000000
O     2.904000000     2.208000000    -3.320000000
H     3.396000000     3.012000000    -3.490000000
H     2.979000000     2.077000000    -2.375000000
O     7.378000000    -3.423000000    -2.108000000
H     6.536000000    -3.564000000    -1.676000000
H     7.232000000    -2.665000000    -2.675000000
O     5.877000000     0.751000000    -2.282000000
H     5.854000000     1.684000000    -2.496000000
H     5.048000000     0.588000000    -1.832000000
O    -4.192000000    -0.585000000    -3.339000000
H    -3.451000000    -0.860000000    -3.880000000
H    -4.954000000    -0.987000000    -3.756000000
O    -1.573000000    -3.964000000     3.270000000
H    -1.903000000    -4.281000000     4.111000000
H    -2.012000000    -4.512000000     2.619000000
O     6.641000000    -1.541000000    -4.009000000
H     6.310000000    -0.731000000    -3.621000000
H     6.881000000    -1.298000000    -4.903000000
O    -3.441000000     3.815000000     1.671000000
H    -3.084000000     4.109000000     0.833000000
H    -3.746000000     4.617000000     2.096000000
O     4.301000000    -1.266000000     3.215000000
H     4.741000000    -1.726000000     2.500000000
H     4.251000000    -1.912000000     3.920000000
O    -2.097000000     4.206000000    -0.787000000
H    -1.283000000     4.581000000    -0.452000000
H    -1.818000000     3.613000000    -1.486000000
O     6.082000000    -1.733000000     0.713000000
H     5.220000000    -1.623000000     0.312000000
H     6.685000000    -1.298000000     0.110000000
O    -3.160000000    -0.168000000     6.021000000
H    -2.666000000    -0.494000000     5.270000000
H    -2.846000000     0.728000000     6.144000000
O    -5.429000000     3.141000000    -2.071000000
H    -5.955000000     3.459000000    -2.805000000
H    -5.483000000     3.839000000    -1.418000000
O    -5.799000000    -0.926000000     0.878000000
H    -5.379000000    -0.118000000     0.584000000
H    -5.941000000    -1.428000000     0.076000000
O    -3.505000000    -3.314000000    -2.116000000
H    -2.682000000    -3.546000000    -2.547000000
H    -3.576000000    -2.367000000    -2.229000000
O     0.348000000     0.587000000    -3.339000000
H     0.997000000     1.290000000    -3.292000000
H    -0.153000000     0.669000000    -2.527000000
O     5.995000000     2.540000000     0.539000000
H     5.517000000     1.867000000     0.055000000
H     6.480000000     2.056000000     1.208000000
O     4.526000000    -5.134000000     2.668000000
H     4.982000000    -5.752000000     2.096000000
H     4.130000000    -4.502000000     2.069000000
O     2.540000000    -4.241000000    -2.323000000
H     2.085000000    -4.819000000    -1.710000000
H     2.312000000    -4.582000000    -3.188000000
O     1.363000000     2.564000000     3.142000000
H     2.138000000     2.148000000     3.519000000
H     1.616000000     2.768000000     2.241000000
O    -2.859000000     2.098000000    -2.951000000
H    -3.586000000     2.543000000    -2.515000000
H    -3.198000000     1.225000000    -3.151000000
O     0.953000000    -2.999000000     2.310000000
H     0.702000000    -2.103000000     2.086000000
H     0.173000000    -3.370000000     2.724000000
O    -4.409000000    -5.811000000    -1.057000000
H    -3.617000000    -6.345000000    -0.984000000
H    -4.100000000    -4.968000000    -1.389000000
O    -1.911000000     2.252000000     6.481000000
H    -1.900000000     3.144000000     6.827000000
H    -2.015000000     2.363000000     5.536000000
O     2.780000000     4.052000000     1.012000000
H     2.861000000     4.794000000     1.611000000
H     3.595000000     4.059000000     0.509000000
O     6.627000000     0.607000000     2.418000000
H     7.189000000     0.828000000     3.161000000
H     6.256000000    -0.246000000     2.644000000
O     4.056000000    -0.195000000    -4.849000000
H     4.345000000    -1.002000000    -4.422000000
H     3.579000000     0.279000000    -4.167000000
