144
-2827.86294
O    -4.196000000    -0.591000000     4.630000000
H    -3.240000000    -0.533000000     4.648000000
H    -4.377000000    -1.413000000     4.174000000
O     2.701000000    -4.262000000    -0.135000000
H     2.406000000    -4.437000000    -1.029000000
H     2.797000000    -3.310000000    -0.096000000
O     3.666000000    -6.056000000     1.796000000
H     4.373000000    -5.480000000     2.089000000
H     3.320000000    -5.631000000     1.012000000
O    -4.809000000    -2.994000000     3.550000000
H    -5.705000000    -3.280000000     3.725000000
H    -4.720000000    -3.052000000     2.599000000
O    -1.131000000    -0.823000000     4.213000000
H    -0.603000000    -0.216000000     3.694000000
H    -0.954000000    -1.682000000     3.831000000
O     5.196000000    -5.406000000    -1.271000000
H     4.645000000    -5.925000000    -1.856000000
H     4.608000000    -4.739000000    -0.917000000
O    -6.287000000     1.327000000     3.922000000
H    -5.560000000     0.781000000     4.222000000
H    -6.354000000     2.019000000     4.580000000
O    -1.881000000     2.211000000     4.489000000
H    -1.340000000     1.756000000     3.844000000
H    -2.545000000     2.664000000     3.968000000
O    -6.122000000     1.938000000     0.775000000
H    -6.157000000     2.842000000     1.088000000
H    -6.417000000     1.987000000    -0.134000000
O    -5.494000000     5.209000000     1.061000000
H    -5.611000000     6.153000000     0.955000000
H    -4.685000000     5.014000000     0.587000000
O    -1.986000000    -3.174000000    -1.353000000
H    -1.280000000    -3.707000000    -0.987000000
H    -1.579000000    -2.325000000    -1.526000000
O     4.243000000    -2.770000000     2.325000000
H     3.447000000    -2.635000000     2.839000000
H     4.093000000    -2.278000000     1.518000000
O    -0.129000000    -4.451000000     0.492000000
H     0.821000000    -4.543000000     0.565000000
H    -0.446000000    -5.342000000     0.343000000
O     4.601000000     4.707000000     0.852000000
H     4.162000000     4.042000000     1.383000000
H     3.887000000     5.228000000     0.483000000
O     3.096000000     0.064000000     3.457000000
H     2.595000000    -0.728000000     3.653000000
H     3.958000000    -0.256000000     3.193000000
O     4.308000000    -1.985000000    -2.995000000
H     4.916000000    -1.307000000    -3.290000000
H     4.189000000    -1.809000000    -2.062000000
O    -0.314000000     4.626000000    -0.691000000
H    -0.110000000     5.435000000    -0.223000000
H     0.342000000     4.000000000    -0.384000000
O    -0.992000000    -1.126000000    -2.882000000
H    -0.995000000    -0.454000000    -2.201000000
H    -0.068000000    -1.351000000    -2.993000000
O     1.762000000    -1.964000000    -3.873000000
H     1.884000000    -1.994000000    -4.822000000
H     2.644000000    -1.841000000    -3.522000000
O     3.826000000     1.582000000    -3.180000000
H     3.300000000     2.378000000    -3.256000000
H     3.487000000     1.143000000    -2.400000000
O     5.967000000     1.655000000     0.330000000
H     5.377000000     2.261000000     0.777000000
H     5.390000000     0.989000000    -0.044000000
O     6.499000000    -3.872000000    -3.226000000
H     6.117000000    -4.397000000    -2.522000000
H     6.120000000    -3.001000000    -3.108000000
O     0.570000000    -4.163000000    -2.636000000
H    -0.073000000    -4.483000000    -3.268000000
H     0.876000000    -3.335000000    -3.005000000
O    -6.402000000    -3.174000000    -1.393000000
H    -5.870000000    -2.403000000    -1.590000000
H    -6.593000000    -3.558000000    -2.249000000
O     7.161000000     4.502000000    -0.758000000
H     6.880000000     4.581000000     0.154000000
H     6.521000000     3.912000000    -1.156000000
O    -2.744000000    -4.591000000     4.359000000
H    -2.637000000    -4.642000000     5.308000000
H    -3.471000000    -3.981000000     4.232000000
O     6.111000000     0.230000000    -3.038000000
H     6.732000000     0.770000000    -3.527000000
H     5.376000000     0.815000000    -2.856000000
O    -3.232000000     3.426000000     2.529000000
H    -3.064000000     4.367000000     2.483000000
H    -4.032000000     3.301000000     2.017000000
O     1.989000000    -2.472000000     3.930000000
H     1.121000000    -2.617000000     3.551000000
H     1.833000000    -2.422000000     4.873000000
O     8.151000000     0.183000000     0.444000000
H     8.575000000     0.528000000     1.230000000
H     7.480000000     0.830000000     0.230000000
O    -3.227000000     4.496000000    -0.759000000
H    -2.367000000     4.824000000    -0.495000000
H    -3.035000000     3.756000000    -1.334000000
O     6.410000000    -1.886000000    -0.365000000
H     5.490000000    -1.695000000    -0.551000000
H     6.803000000    -1.029000000    -0.201000000
O    -0.456000000     6.594000000    -2.798000000
H    -0.557000000     6.224000000    -1.921000000
H    -1.251000000     7.110000000    -2.934000000
O    -5.032000000    -0.959000000    -1.931000000
H    -4.231000000    -0.648000000    -2.352000000
H    -5.509000000    -0.161000000    -1.703000000
O    -6.984000000    -1.029000000     0.994000000
H    -6.638000000    -1.309000000     0.146000000
H    -6.520000000    -0.214000000     1.185000000
O    -5.747000000     1.739000000    -2.244000000
H    -5.435000000     2.067000000    -3.088000000
H    -6.367000000     2.404000000    -1.944000000
O     2.336000000     5.769000000    -0.747000000
H     2.843000000     6.579000000    -0.813000000
H     1.488000000     6.045000000    -0.400000000
O    -4.502000000    -3.624000000     0.489000000
H    -5.078000000    -3.458000000    -0.257000000
H    -3.655000000    -3.266000000     0.223000000
O     2.642000000     3.899000000    -2.832000000
H     3.550000000     4.189000000    -2.922000000
H     2.308000000     4.390000000    -2.081000000
O    -0.205000000     3.109000000    -3.686000000
H     0.619000000     3.572000000    -3.535000000
H    -0.831000000     3.799000000    -3.905000000
O     3.500000000     2.289000000     1.719000000
H     3.248000000     1.753000000     0.967000000
H     3.599000000     1.663000000     2.437000000
O     2.823000000    -5.557000000    -2.719000000
H     1.941000000    -5.203000000    -2.835000000
H     3.274000000    -5.352000000    -3.538000000
O     0.184000000     1.459000000     2.825000000
H     0.734000000     0.742000000     2.509000000
H     0.051000000     2.016000000     2.058000000
O    -2.761000000     2.675000000    -2.773000000
H    -3.531000000     2.469000000    -3.303000000
H    -2.020000000     2.542000000    -3.364000000
O    -0.665000000    -3.264000000     3.273000000
H    -0.657000000    -3.570000000     2.366000000
H    -1.219000000    -3.894000000     3.733000000
O     1.257000000     3.764000000     1.506000000
H     1.178000000     4.481000000     2.136000000
H     2.033000000     3.280000000     1.789000000
O     5.877000000    -0.146000000     2.867000000
H     6.284000000    -0.461000000     3.675000000
H     6.401000000     0.614000000     2.615000000
O     2.901000000     0.964000000    -5.684000000
H     1.952000000     0.980000000    -5.556000000
H     3.261000000     1.229000000    -4.838000000
