144
-2818.11427
O     2.197000000     2.257000000     6.288000000
H     2.610000000     1.516000000     6.731000000
H     1.271000000     2.020000000     6.238000000
O    -3.174000000    -2.560000000     6.648000000
H    -2.285000000    -2.238000000     6.796000000
H    -3.436000000    -2.166000000     5.817000000
O    -0.576000000     2.069000000     5.962000000
H    -1.129000000     2.757000000     5.591000000
H    -0.831000000     1.276000000     5.490000000
O    -2.148000000     3.774000000     4.521000000
H    -1.851000000     4.580000000     4.099000000
H    -2.701000000     4.072000000     5.244000000
O    -5.621000000     3.010000000     0.685000000
H    -5.983000000     3.878000000     0.866000000
H    -5.056000000     2.825000000     1.435000000
O    -1.054000000     5.125000000    -2.352000000
H    -1.951000000     4.810000000    -2.459000000
H    -0.954000000     5.249000000    -1.408000000
O    -6.532000000     0.408000000     2.461000000
H    -6.014000000    -0.138000000     3.051000000
H    -6.968000000     1.037000000     3.037000000
O    -1.488000000     6.078000000     3.299000000
H    -2.311000000     6.566000000     3.295000000
H    -0.820000000     6.735000000     3.497000000
O    -4.397000000    -1.426000000    -0.505000000
H    -5.221000000    -1.335000000    -0.026000000
H    -4.402000000    -0.701000000    -1.130000000
O    -4.354000000    -1.293000000     2.387000000
H    -3.977000000    -1.163000000     1.517000000
H    -4.153000000    -2.204000000     2.602000000
O     4.265000000    -3.800000000     1.979000000
H     4.310000000    -2.863000000     1.787000000
H     3.882000000    -4.187000000     1.192000000
O     1.127000000     3.369000000     0.495000000
H     1.404000000     3.429000000    -0.419000000
H     1.157000000     2.434000000     0.694000000
O     5.020000000     0.840000000     0.326000000
H     5.896000000     0.568000000     0.600000000
H     4.740000000     1.459000000     1.000000000
O    -0.720000000     5.245000000     0.521000000
H    -0.146000000     4.491000000     0.655000000
H    -1.072000000     5.436000000     1.390000000
O    -4.458000000     0.399000000    -2.496000000
H    -4.661000000     1.294000000    -2.223000000
H    -4.042000000     0.499000000    -3.352000000
O    -3.335000000    -3.870000000     1.419000000
H    -3.726000000    -4.312000000     0.666000000
H    -2.725000000    -3.239000000     1.036000000
O     5.062000000     1.920000000    -5.207000000
H     4.290000000     1.774000000    -4.659000000
H     5.572000000     2.576000000    -4.731000000
O     1.877000000    -2.937000000     3.209000000
H     1.325000000    -3.283000000     2.508000000
H     2.743000000    -3.306000000     3.036000000
O     2.831000000    -4.983000000    -5.547000000
H     3.450000000    -4.427000000    -5.075000000
H     3.378000000    -5.644000000    -5.972000000
O    -4.402000000     3.352000000     3.043000000
H    -3.541000000     3.397000000     3.458000000
H    -4.657000000     4.266000000     2.922000000
O     0.585000000     4.768000000    -4.383000000
H    -0.154000000     4.969000000    -3.809000000
H     0.983000000     5.618000000    -4.567000000
O     1.064000000    -3.042000000    -4.572000000
H     1.593000000    -3.602000000    -5.140000000
H     1.606000000    -2.910000000    -3.794000000
O     2.907000000    -0.706000000    -7.550000000
H     2.313000000    -1.370000000    -7.901000000
H     2.471000000    -0.389000000    -6.759000000
O     0.955000000    -2.152000000     5.705000000
H     0.340000000    -2.836000000     5.969000000
H     1.048000000    -2.266000000     4.759000000
O    -3.547000000    -0.285000000     4.807000000
H    -2.603000000    -0.129000000     4.814000000
H    -3.768000000    -0.378000000     3.880000000
O     2.074000000    -6.406000000    -2.234000000
H     2.373000000    -5.957000000    -3.025000000
H     1.131000000    -6.242000000    -2.208000000
O     2.267000000     2.746000000    -5.985000000
H     2.960000000     3.365000000    -5.754000000
H     1.493000000     3.069000000    -5.524000000
O     3.934000000     2.089000000    -2.222000000
H     4.574000000     1.732000000    -1.607000000
H     3.363000000     1.350000000    -2.430000000
O    -1.191000000    -1.684000000    -4.308000000
H    -0.358000000    -2.116000000    -4.492000000
H    -1.378000000    -1.903000000    -3.395000000
O     4.867000000    -1.270000000    -5.667000000
H     4.067000000    -1.174000000    -6.183000000
H     5.097000000    -0.377000000    -5.411000000
O     4.168000000    -3.225000000    -3.842000000
H     4.313000000    -2.481000000    -4.427000000
H     3.646000000    -2.868000000    -3.125000000
O    -0.066000000    -4.209000000     1.655000000
H     0.106000000    -5.024000000     2.128000000
H     0.300000000    -4.357000000     0.783000000
O    -0.932000000    -0.262000000     4.738000000
H    -1.139000000    -1.005000000     4.171000000
H    -0.026000000    -0.412000000     5.007000000
O     6.546000000    -3.097000000     0.302000000
H     7.320000000    -2.679000000     0.679000000
H     5.922000000    -3.145000000     1.027000000
O     2.459000000     4.592000000     2.596000000
H     3.246000000     4.049000000     2.632000000
H     1.988000000     4.280000000     1.823000000
O     6.876000000    -4.003000000    -4.009000000
H     5.985000000    -3.856000000    -3.692000000
H     7.434000000    -3.558000000    -3.370000000
O    -1.528000000    -2.741000000     3.601000000
H    -0.970000000    -3.220000000     2.988000000
H    -1.545000000    -3.287000000     4.387000000
O    -0.783000000     0.885000000    -7.182000000
H    -0.546000000     0.115000000    -7.699000000
H    -0.174000000     0.875000000    -6.443000000
O     5.426000000    -0.928000000    -2.014000000
H     4.503000000    -1.036000000    -2.245000000
H     5.419000000    -0.305000000    -1.287000000
O    -6.761000000     2.037000000     4.540000000
H    -6.476000000     2.206000000     5.438000000
H    -6.188000000     2.580000000     4.000000000
O    -3.080000000     0.594000000    -4.753000000
H    -2.240000000     0.208000000    -4.506000000
H    -2.868000000     1.187000000    -5.474000000
O     7.537000000    -0.233000000    -3.965000000
H     7.606000000     0.420000000    -3.269000000
H     6.813000000    -0.797000000    -3.693000000
O     1.855000000    -0.294000000    -5.237000000
H     2.233000000     0.102000000    -4.451000000
H     1.514000000    -1.137000000    -4.940000000
O     2.520000000    -4.194000000    -0.480000000
H     2.308000000    -5.033000000    -0.889000000
H     2.537000000    -3.571000000    -1.207000000
O    -4.808000000     2.934000000    -2.042000000
H    -4.967000000     2.676000000    -1.134000000
H    -4.913000000     3.886000000    -2.043000000
O    -0.614000000    -5.852000000    -2.211000000
H    -1.301000000    -6.015000000    -2.858000000
H    -1.046000000    -5.340000000    -1.528000000
O    -1.571000000    -2.599000000    -1.241000000
H    -2.403000000    -2.143000000    -1.118000000
H    -0.948000000    -2.112000000    -0.702000000
O     2.087000000     4.036000000    -2.029000000
H     2.917000000     3.641000000    -2.294000000
H     1.559000000     4.043000000    -2.828000000
