144
-2821.68717
O     1.290000000    -4.462000000     4.577000000
H     0.651000000    -4.757000000     3.928000000
H     1.174000000    -3.512000000     4.613000000
O    -4.768000000     5.002000000    -3.663000000
H    -5.511000000     4.530000000    -3.286000000
H    -4.000000000     4.508000000    -3.376000000
O     6.333000000    -5.510000000    -2.117000000
H     5.581000000    -5.133000000    -2.573000000
H     6.173000000    -6.454000000    -2.131000000
O     3.700000000    -6.446000000    -2.662000000
H     3.384000000    -6.091000000    -1.832000000
H     3.563000000    -7.391000000    -2.586000000
O    -3.002000000    -3.867000000     1.497000000
H    -3.889000000    -3.508000000     1.483000000
H    -2.448000000    -3.127000000     1.748000000
O    -5.346000000    -2.122000000     0.848000000
H    -6.264000000    -2.347000000     0.995000000
H    -5.050000000    -1.763000000     1.685000000
O    -5.657000000     3.964000000    -0.080000000
H    -6.110000000     3.604000000    -0.842000000
H    -5.125000000     4.678000000    -0.432000000
O     8.010000000    -2.556000000     0.945000000
H     8.053000000    -1.887000000     0.262000000
H     7.182000000    -2.388000000     1.394000000
O    -4.431000000    -1.331000000    -1.515000000
H    -4.643000000    -1.857000000    -0.744000000
H    -4.170000000    -1.971000000    -2.177000000
O    -3.072000000     5.242000000    -1.125000000
H    -2.877000000     4.555000000    -1.762000000
H    -2.449000000     5.093000000    -0.414000000
O     3.765000000     0.048000000     3.288000000
H     4.619000000    -0.112000000     2.886000000
H     3.679000000    -0.640000000     3.948000000
O    -0.552000000     2.764000000     4.191000000
H     0.262000000     2.538000000     3.741000000
H    -1.237000000     2.599000000     3.543000000
O     3.137000000     2.699000000    -2.557000000
H     3.199000000     3.476000000    -3.114000000
H     2.801000000     2.015000000    -3.136000000
O     3.146000000    -0.168000000    -2.888000000
H     3.910000000    -0.175000000    -3.465000000
H     3.509000000    -0.265000000    -2.008000000
O     4.966000000    -4.012000000    -4.838000000
H     4.905000000    -3.274000000    -4.231000000
H     4.540000000    -3.700000000    -5.637000000
O     2.601000000     4.691000000     4.254000000
H     2.165000000     4.397000000     3.454000000
H     2.125000000     5.481000000     4.510000000
O     0.932000000    -3.720000000    -2.484000000
H     0.918000000    -2.873000000    -2.930000000
H     1.577000000    -3.611000000    -1.785000000
O    -4.881000000    -1.306000000     3.434000000
H    -4.058000000    -0.856000000     3.625000000
H    -5.297000000    -1.418000000     4.289000000
O    -4.719000000     4.188000000     3.117000000
H    -4.481000000     4.064000000     2.199000000
H    -5.345000000     3.487000000     3.299000000
O     4.741000000     3.387000000     1.815000000
H     3.885000000     3.765000000     1.617000000
H     4.745000000     2.548000000     1.355000000
O     5.275000000     1.056000000    -0.075000000
H     4.639000000     0.387000000    -0.327000000
H     5.863000000     0.609000000     0.535000000
O     2.655000000    -5.468000000    -0.407000000
H     3.505000000    -5.618000000     0.006000000
H     2.670000000    -4.545000000    -0.660000000
O    -1.459000000    -1.787000000     3.368000000
H    -1.990000000    -2.552000000     3.591000000
H    -0.747000000    -1.795000000     4.008000000
O    -2.619000000     5.699000000     3.564000000
H    -2.845000000     6.511000000     4.017000000
H    -3.463000000     5.301000000     3.350000000
O     3.646000000    -2.167000000     4.629000000
H     4.485000000    -2.535000000     4.904000000
H     3.404000000    -2.675000000     3.855000000
O    -6.146000000     1.514000000     1.415000000
H    -5.922000000     2.262000000     0.862000000
H    -5.647000000     0.785000000     1.047000000
O     5.015000000     0.230000000    -4.726000000
H     5.593000000    -0.411000000    -5.140000000
H     5.547000000     0.617000000    -4.030000000
O    -1.611000000    -0.516000000    -3.228000000
H    -2.267000000    -1.188000000    -3.416000000
H    -1.617000000    -0.435000000    -2.275000000
O     5.144000000    -2.577000000    -2.398000000
H     5.314000000    -1.718000000    -2.011000000
H     4.556000000    -3.008000000    -1.778000000
O    -4.554000000     1.174000000    -2.712000000
H    -4.260000000     0.521000000    -2.076000000
H    -4.668000000     0.682000000    -3.525000000
O     0.326000000    -6.269000000    -3.212000000
H    -0.627000000    -6.301000000    -3.121000000
H     0.565000000    -5.390000000    -2.919000000
O     2.582000000     3.977000000     0.065000000
H     2.953000000     3.530000000    -0.696000000
H     2.235000000     4.798000000    -0.286000000
O     1.250000000     0.760000000     3.077000000
H     1.056000000     0.582000000     2.157000000
H     2.205000000     0.722000000     3.132000000
O    -1.199000000     5.042000000     1.225000000
H    -0.516000000     5.712000000     1.200000000
H    -1.783000000     5.322000000     1.929000000
O     4.813000000    -5.850000000     1.375000000
H     5.750000000    -6.040000000     1.333000000
H     4.509000000    -6.316000000     2.155000000
O     1.032000000     3.681000000     2.124000000
H     1.647000000     3.766000000     1.395000000
H     0.256000000     4.164000000     1.840000000
O    -2.433000000    -5.798000000    -3.128000000
H    -3.186000000    -6.383000000    -3.059000000
H    -2.484000000    -5.247000000    -2.347000000
O    -1.350000000     1.808000000    -4.808000000
H    -1.441000000     1.015000000    -4.280000000
H    -1.792000000     1.598000000    -5.631000000
O     0.970000000    -1.358000000     4.628000000
H     1.211000000    -0.640000000     4.044000000
H     1.780000000    -1.574000000     5.090000000
O     0.949000000    -1.234000000    -4.260000000
H     0.388000000    -0.799000000    -3.617000000
H     1.827000000    -0.902000000    -4.074000000
O     2.913000000    -3.675000000     1.863000000
H     2.078000000    -3.963000000     2.231000000
H     2.732000000    -3.543000000     0.933000000
O     5.253000000    -2.083000000     1.518000000
H     4.603000000    -2.723000000     1.810000000
H     4.813000000    -1.596000000     0.821000000
O     6.018000000     2.792000000    -1.696000000
H     5.886000000     2.244000000    -0.923000000
H     5.138000000     3.078000000    -1.941000000
O    -2.768000000     3.211000000    -3.005000000
H    -1.925000000     2.871000000    -3.304000000
H    -3.306000000     2.432000000    -2.866000000
O    -2.762000000     0.582000000     4.752000000
H    -2.026000000    -0.029000000     4.722000000
H    -2.356000000     1.444000000     4.835000000
O    -0.631000000    -5.359000000     2.590000000
H    -0.506000000    -6.073000000     1.965000000
H    -1.544000000    -5.096000000     2.473000000
O    -2.588000000    -5.988000000    -0.430000000
H    -2.861000000    -5.391000000     0.267000000
H    -1.635000000    -6.023000000    -0.355000000
O     6.949000000     0.135000000    -2.163000000
H     6.762000000     0.954000000    -1.704000000
H     7.905000000     0.074000000    -2.165000000
