144
-2817.92389
O    -0.055000000     0.233000000     5.709000000
H     0.083000000    -0.239000000     4.888000000
H     0.677000000    -0.034000000     6.265000000
O    -3.195000000    -0.135000000     3.047000000
H    -2.454000000    -0.155000000     2.441000000
H    -3.697000000    -0.923000000     2.837000000
O     7.166000000     2.072000000    -0.098000000
H     7.168000000     1.382000000    -0.762000000
H     6.473000000     2.670000000    -0.377000000
O    -4.171000000    -3.080000000     2.530000000
H    -3.504000000    -3.716000000     2.269000000
H    -4.937000000    -3.612000000     2.747000000
O    -5.737000000     3.630000000     1.983000000
H    -5.903000000     3.603000000     1.041000000
H    -6.019000000     2.772000000     2.301000000
O    -2.950000000    -4.751000000    -1.100000000
H    -2.042000000    -4.978000000    -0.901000000
H    -3.171000000    -4.069000000    -0.465000000
O     0.037000000     5.362000000    -0.738000000
H    -0.204000000     5.303000000     0.187000000
H     0.926000000     5.010000000    -0.776000000
O    -4.677000000     5.540000000     3.849000000
H    -5.061000000     4.833000000     3.330000000
H    -3.868000000     5.168000000     4.200000000
O    -2.392000000     3.923000000     4.445000000
H    -2.913000000     3.147000000     4.651000000
H    -1.484000000     3.640000000     4.561000000
O    -5.255000000     0.298000000    -1.940000000
H    -5.361000000    -0.141000000    -1.095000000
H    -5.991000000    -0.017000000    -2.466000000
O     2.978000000    -4.166000000     1.690000000
H     3.776000000    -3.791000000     1.318000000
H     2.340000000    -4.124000000     0.978000000
O     2.272000000     4.749000000    -3.757000000
H     1.669000000     4.781000000    -4.500000000
H     3.027000000     5.264000000    -4.039000000
O     0.047000000     4.486000000     2.160000000
H    -0.229000000     3.894000000     2.860000000
H    -0.345000000     5.328000000     2.391000000
O    -2.268000000    -5.016000000     2.155000000
H    -2.811000000    -5.760000000     2.416000000
H    -1.410000000    -5.201000000     2.537000000
O     0.062000000     2.781000000     4.751000000
H     0.857000000     3.028000000     5.223000000
H    -0.067000000     1.857000000     4.966000000
O     3.185000000    -7.509000000    -0.272000000
H     2.340000000    -7.492000000     0.177000000
H     3.468000000    -8.422000000    -0.214000000
O    -1.155000000     6.928000000     2.805000000
H    -1.919000000     7.196000000     3.317000000
H    -0.474000000     7.556000000     3.045000000
O     2.505000000     4.346000000    -1.040000000
H     2.622000000     3.528000000    -0.556000000
H     1.904000000     4.121000000    -1.750000000
O    -4.166000000     1.807000000     4.846000000
H    -3.377000000     1.268000000     4.791000000
H    -4.656000000     1.597000000     4.051000000
O     5.666000000     1.704000000    -4.734000000
H     5.407000000     0.876000000    -5.138000000
H     4.975000000     1.886000000    -4.096000000
O    -4.023000000     4.531000000    -1.561000000
H    -4.723000000     5.139000000    -1.802000000
H    -3.218000000     5.037000000    -1.672000000
O    -1.665000000     5.700000000    -2.628000000
H    -1.577000000     5.097000000    -3.366000000
H    -1.003000000     5.409000000    -2.000000000
O    -0.490000000    -5.259000000    -0.435000000
H    -0.211000000    -5.884000000     0.233000000
H     0.226000000    -4.626000000    -0.486000000
O    -3.215000000     1.982000000    -2.962000000
H    -3.862000000     1.448000000    -2.501000000
H    -3.080000000     2.739000000    -2.393000000
O    -4.395000000     7.132000000     0.459000000
H    -3.531000000     7.400000000     0.145000000
H    -4.215000000     6.431000000     1.086000000
O     4.578000000    -0.540000000     1.109000000
H     3.967000000    -1.176000000     0.738000000
H     4.271000000     0.306000000     0.781000000
O     4.733000000    -4.031000000    -1.709000000
H     4.226000000    -3.271000000    -1.423000000
H     4.197000000    -4.784000000    -1.460000000
O     0.719000000    -5.750000000     2.956000000
H     1.664000000    -5.690000000     2.819000000
H     0.620000000    -5.858000000     3.902000000
O     3.551000000     3.620000000     3.235000000
H     3.703000000     2.948000000     3.899000000
H     2.816000000     4.130000000     3.575000000
O    -5.885000000     2.834000000    -0.921000000
H    -5.673000000     2.020000000    -1.379000000
H    -5.106000000     3.380000000    -1.030000000
O    -2.275000000    -3.091000000    -3.348000000
H    -2.750000000    -3.403000000    -2.577000000
H    -1.352000000    -3.194000000    -3.119000000
O     5.494000000    -4.101000000    -4.301000000
H     6.090000000    -4.849000000    -4.355000000
H     5.099000000    -4.173000000    -3.432000000
O     1.950000000    -2.288000000    -5.056000000
H     2.631000000    -2.756000000    -5.538000000
H     2.425000000    -1.794000000    -4.388000000
O     0.778000000     0.134000000    -4.686000000
H    -0.150000000     0.035000000    -4.473000000
H     1.081000000    -0.758000000    -4.857000000
O    -0.832000000    -6.732000000    -2.611000000
H    -0.916000000    -6.026000000    -3.253000000
H    -0.486000000    -6.303000000    -1.828000000
O     3.986000000     2.367000000     0.533000000
H     4.638000000     2.983000000     0.199000000
H     3.821000000     2.654000000     1.431000000
O     5.936000000     0.721000000     3.525000000
H     6.597000000     1.371000000     3.286000000
H     5.553000000     0.452000000     2.690000000
O     0.354000000    -3.821000000    -3.187000000
H     0.751000000    -3.787000000    -2.316000000
H     1.093000000    -3.744000000    -3.790000000
O     3.133000000     1.935000000    -3.529000000
H     2.855000000     2.815000000    -3.785000000
H     2.383000000     1.378000000    -3.736000000
O     0.779000000    -7.578000000     0.992000000
H     0.803000000    -7.014000000     1.765000000
H     0.116000000    -8.237000000     1.197000000
O     2.202000000    -2.713000000     4.219000000
H     2.506000000    -3.232000000     3.474000000
H     1.322000000    -3.044000000     4.398000000
O     3.577000000    -1.154000000    -3.330000000
H     3.724000000    -0.232000000    -3.119000000
H     3.251000000    -1.537000000    -2.516000000
O     6.698000000    -2.183000000     2.009000000
H     6.093000000    -1.518000000     1.683000000
H     7.257000000    -1.715000000     2.629000000
O    -2.531000000    -0.558000000    -4.458000000
H    -2.657000000     0.054000000    -3.733000000
H    -2.369000000    -1.401000000    -4.035000000
O     0.277000000     0.032000000     2.976000000
H     0.047000000     0.872000000     2.578000000
H     0.696000000    -0.461000000     2.271000000
O     7.453000000    -3.129000000    -0.883000000
H     7.315000000    -3.058000000     0.062000000
H     6.614000000    -3.437000000    -1.225000000
O     6.533000000    -1.561000000    -4.017000000
H     7.296000000    -1.981000000    -4.414000000
H     5.905000000    -2.273000000    -3.895000000
O    -4.792000000    -1.621000000     0.416000000
H    -4.446000000    -2.292000000     1.005000000
H    -5.582000000    -1.303000000     0.855000000
