144
-2815.76977
O     5.876000000    -0.892000000     4.719000000
H     5.131000000    -1.243000000     4.231000000
H     5.963000000     0.010000000     4.408000000
O     0.735000000    -6.733000000    -4.488000000
H     1.143000000    -7.596000000    -4.418000000
H     0.741000000    -6.392000000    -3.594000000
O    -2.823000000     1.031000000     3.481000000
H    -3.067000000     0.597000000     4.299000000
H    -2.925000000     0.355000000     2.812000000
O    -3.159000000    -1.232000000     1.867000000
H    -3.695000000    -2.010000000     2.023000000
H    -2.467000000    -1.534000000     1.277000000
O    -5.568000000     5.308000000     1.269000000
H    -5.721000000     4.436000000     1.634000000
H    -5.340000000     5.848000000     2.025000000
O    -2.576000000    -4.732000000    -1.385000000
H    -1.886000000    -4.892000000    -0.741000000
H    -2.629000000    -5.545000000    -1.887000000
O     2.651000000    -3.686000000     4.916000000
H     3.148000000    -3.993000000     4.158000000
H     3.291000000    -3.661000000     5.627000000
O    -0.578000000     6.053000000     1.236000000
H    -0.755000000     5.519000000     2.010000000
H     0.306000000     5.801000000     0.969000000
O    -3.868000000     3.707000000     4.439000000
H    -4.553000000     3.850000000     3.787000000
H    -3.521000000     2.838000000     4.236000000
O    -4.910000000     1.253000000    -2.000000000
H    -4.929000000     1.303000000    -1.045000000
H    -5.824000000     1.115000000    -2.251000000
O     5.785000000    -4.921000000     3.735000000
H     5.773000000    -5.872000000     3.844000000
H     5.075000000    -4.742000000     3.117000000
O     1.701000000     5.422000000    -0.211000000
H     1.446000000     4.863000000    -0.945000000
H     2.639000000     5.565000000    -0.333000000
O     2.184000000     1.058000000     2.969000000
H     2.680000000     0.563000000     2.317000000
H     2.795000000     1.726000000     3.279000000
O     0.724000000     2.947000000    -4.864000000
H     1.312000000     2.403000000    -5.388000000
H    -0.151000000     2.735000000    -5.187000000
O    -0.762000000    -4.384000000     2.893000000
H    -0.336000000    -5.008000000     3.481000000
H    -0.620000000    -3.532000000     3.305000000
O    -0.300000000     2.126000000     3.897000000
H    -1.102000000     1.699000000     3.597000000
H     0.399000000     1.697000000     3.404000000
O     2.563000000     4.634000000     2.348000000
H     2.311000000     5.285000000     3.003000000
H     2.258000000     5.001000000     1.517000000
O     0.042000000    -7.925000000    -1.431000000
H    -0.039000000    -8.449000000    -0.634000000
H    -0.476000000    -7.139000000    -1.255000000
O    -6.167000000     2.999000000     2.732000000
H    -5.978000000     2.312000000     3.371000000
H    -6.249000000     2.534000000     1.899000000
O    -4.696000000     5.846000000    -3.199000000
H    -4.308000000     5.188000000    -2.622000000
H    -4.641000000     6.663000000    -2.702000000
O    -1.875000000     7.923000000    -0.388000000
H    -1.457000000     7.581000000    -1.178000000
H    -1.570000000     7.347000000     0.313000000
O    -0.443000000    -4.975000000     0.146000000
H    -0.396000000    -4.863000000     1.096000000
H     0.296000000    -4.468000000    -0.191000000
O    -2.998000000     1.397000000    -3.833000000
H    -3.343000000     2.120000000    -4.357000000
H    -3.636000000     1.286000000    -3.128000000
O    -1.303000000     4.938000000     3.620000000
H    -2.228000000     4.717000000     3.723000000
H    -0.844000000     4.106000000     3.731000000
O     0.702000000     3.603000000    -2.081000000
H     0.622000000     3.396000000    -3.012000000
H    -0.185000000     3.844000000    -1.812000000
O     3.604000000    -4.533000000     2.341000000
H     3.106000000    -3.979000000     1.740000000
H     3.121000000    -5.359000000     2.362000000
O     3.637000000    -5.450000000    -0.789000000
H     2.860000000    -4.899000000    -0.699000000
H     3.301000000    -6.346000000    -0.768000000
O    -5.158000000    -1.360000000    -3.404000000
H    -5.023000000    -0.686000000    -4.070000000
H    -4.367000000    -1.898000000    -3.443000000
O    -4.101000000     3.915000000    -1.351000000
H    -4.429000000     3.058000000    -1.620000000
H    -3.922000000     3.820000000    -0.415000000
O    -5.171000000    -4.316000000    -0.268000000
H    -4.497000000    -4.334000000    -0.947000000
H    -5.559000000    -3.444000000    -0.338000000
O     6.375000000    -1.749000000    -3.128000000
H     5.773000000    -1.959000000    -2.413000000
H     7.221000000    -1.622000000    -2.698000000
O     2.060000000    -0.496000000    -3.172000000
H     1.132000000    -0.319000000    -3.324000000
H     2.090000000    -1.422000000    -2.930000000
O    -2.793000000    -2.774000000    -3.589000000
H    -2.079000000    -3.068000000    -4.155000000
H    -2.800000000    -3.401000000    -2.867000000
O     4.916000000     3.308000000     1.658000000
H     4.040000000     3.647000000     1.843000000
H     4.766000000     2.564000000     1.074000000
O     4.495000000     1.164000000    -0.047000000
H     4.160000000     1.415000000    -0.908000000
H     4.807000000     0.267000000    -0.163000000
O    -0.519000000    -4.258000000    -4.496000000
H    -0.241000000    -5.172000000    -4.555000000
H     0.181000000    -3.826000000    -4.007000000
O     1.452000000    -3.519000000    -3.016000000
H     1.146000000    -3.649000000    -2.119000000
H     2.390000000    -3.706000000    -2.979000000
O     6.249000000     1.534000000     3.297000000
H     7.141000000     1.882000000     3.290000000
H     5.776000000     2.075000000     2.664000000
O     3.177000000     2.013000000    -2.397000000
H     2.372000000     2.395000000    -2.050000000
H     2.930000000     1.124000000    -2.653000000
O     0.739000000    -2.025000000     3.842000000
H     1.318000000    -2.615000000     4.325000000
H     1.316000000    -1.581000000     3.220000000
O     4.868000000    -2.619000000    -1.099000000
H     5.534000000    -2.667000000    -0.412000000
H     4.039000000    -2.739000000    -0.637000000
O     6.953000000    -0.597000000     1.194000000
H     6.659000000    -0.355000000     2.072000000
H     7.149000000     0.238000000     0.768000000
O    -0.651000000    -0.511000000    -3.852000000
H    -1.135000000    -1.087000000    -3.260000000
H    -1.198000000     0.272000000    -3.924000000
O    -6.289000000    -1.821000000    -0.977000000
H    -5.752000000    -1.634000000    -1.747000000
H    -6.795000000    -1.020000000    -0.838000000
O    -3.698000000    -5.222000000     2.594000000
H    -4.218000000    -4.426000000     2.478000000
H    -2.833000000    -4.993000000     2.256000000
O     4.282000000    -1.778000000     2.679000000
H     4.635000000    -2.668000000     2.666000000
H     3.718000000    -1.733000000     1.907000000
O     6.290000000    -4.911000000     0.391000000
H     5.496000000    -4.878000000    -0.143000000
H     6.208000000    -5.723000000     0.892000000
O    -5.625000000     0.673000000     0.716000000
H    -4.927000000     0.074000000     0.981000000
H    -6.429000000     0.255000000     1.023000000
