144
-2835.84592
O    -1.601000000    -5.477000000    -2.650000000
H    -2.036000000    -5.323000000    -1.812000000
H    -1.344000000    -4.605000000    -2.950000000
O     6.034000000     2.148000000    -2.000000000
H     5.834000000     1.548000000    -1.281000000
H     5.454000000     2.896000000    -1.857000000
O     0.900000000    -7.040000000    -1.580000000
H     1.524000000    -6.433000000    -1.183000000
H     0.133000000    -6.502000000    -1.774000000
O     4.603000000     0.513000000    -3.400000000
H     5.391000000     1.007000000    -3.173000000
H     4.269000000     0.196000000    -2.561000000
O    -5.124000000    -1.899000000    -2.663000000
H    -5.194000000    -2.251000000    -1.775000000
H    -5.934000000    -1.406000000    -2.789000000
O     2.255000000     3.505000000     4.909000000
H     2.348000000     3.601000000     3.961000000
H     2.825000000     2.769000000     5.132000000
O     5.056000000    -1.717000000     3.448000000
H     5.596000000    -2.457000000     3.171000000
H     4.276000000    -1.770000000     2.896000000
O     2.370000000    -3.107000000    -3.036000000
H     2.881000000    -2.519000000    -2.480000000
H     3.004000000    -3.456000000    -3.662000000
O     0.584000000     5.654000000     0.110000000
H    -0.324000000     5.467000000     0.347000000
H     0.700000000     5.236000000    -0.744000000
O     0.425000000    -3.898000000     1.596000000
H     1.095000000    -3.337000000     1.985000000
H     0.817000000    -4.210000000     0.780000000
O    -0.651000000     3.445000000    -2.906000000
H     0.199000000     3.858000000    -3.057000000
H    -0.494000000     2.513000000    -3.058000000
O    -4.966000000    -1.804000000     3.417000000
H    -4.077000000    -1.760000000     3.063000000
H    -5.160000000    -2.740000000     3.462000000
O    -0.241000000    -0.191000000     5.169000000
H    -0.041000000     0.745000000     5.174000000
H    -0.295000000    -0.429000000     6.094000000
O    -4.538000000     4.853000000     0.251000000
H    -4.742000000     5.710000000    -0.124000000
H    -5.368000000     4.377000000     0.226000000
O    -6.321000000    -2.739000000    -0.287000000
H    -6.643000000    -3.520000000     0.163000000
H    -6.369000000    -2.046000000     0.371000000
O     2.262000000    -4.858000000    -0.995000000
H     3.162000000    -4.746000000    -0.688000000
H     2.175000000    -4.234000000    -1.716000000
O     1.706000000     4.809000000    -2.712000000
H     2.425000000     4.276000000    -2.372000000
H     2.113000000     5.645000000    -2.938000000
O    -0.951000000     4.441000000     3.564000000
H    -1.439000000     4.322000000     2.749000000
H    -0.050000000     4.597000000     3.283000000
O    -7.084000000    -0.084000000    -2.311000000
H    -7.143000000     0.344000000    -1.457000000
H    -7.182000000     0.629000000    -2.943000000
O    -2.566000000    -2.800000000     1.692000000
H    -2.467000000    -2.883000000     2.641000000
H    -1.669000000    -2.777000000     1.359000000
O     7.263000000    -3.960000000    -1.152000000
H     8.038000000    -4.080000000    -0.604000000
H     7.156000000    -3.010000000    -1.211000000
O     5.571000000     0.262000000    -6.223000000
H     6.519000000     0.394000000    -6.238000000
H     5.311000000     0.496000000    -5.332000000
O    -7.273000000    -1.281000000     2.112000000
H    -8.074000000    -1.721000000     2.396000000
H    -6.601000000    -1.592000000     2.719000000
O    -6.751000000     1.615000000     3.459000000
H    -6.197000000     1.083000000     4.031000000
H    -7.557000000     1.107000000     3.366000000
O    -0.204000000     0.684000000    -2.953000000
H    -0.786000000    -0.054000000    -3.138000000
H     0.345000000     0.380000000    -2.229000000
O    -2.013000000    -2.212000000     4.299000000
H    -2.094000000    -2.447000000     5.223000000
H    -1.873000000    -1.265000000     4.303000000
O    -2.502000000    -4.921000000    -0.154000000
H    -2.901000000    -4.215000000     0.354000000
H    -1.820000000    -5.272000000     0.420000000
O     4.909000000    -4.764000000    -0.267000000
H     5.158000000    -5.565000000     0.196000000
H     5.739000000    -4.393000000    -0.567000000
O     5.647000000    -1.715000000    -0.364000000
H     4.738000000    -1.603000000    -0.644000000
H     5.930000000    -0.836000000    -0.112000000
O    -0.487000000    -3.066000000    -3.674000000
H    -0.470000000    -2.678000000    -4.548000000
H     0.426000000    -3.046000000    -3.385000000
O     2.297000000     1.120000000    -4.586000000
H     3.194000000     0.882000000    -4.350000000
H     1.760000000     0.766000000    -3.878000000
O    -3.381000000     1.399000000     5.144000000
H    -2.633000000     1.843000000     5.545000000
H    -3.981000000     2.107000000     4.909000000
O     6.271000000     0.969000000     0.476000000
H     6.279000000     1.463000000     1.296000000
H     5.346000000     0.918000000     0.236000000
O    -2.371000000    -1.044000000    -2.980000000
H    -1.907000000    -1.876000000    -3.071000000
H    -3.243000000    -1.288000000    -2.671000000
O    -5.726000000    -0.060000000     5.481000000
H    -4.817000000     0.231000000     5.550000000
H    -5.697000000    -0.794000000     4.868000000
O    -7.079000000     3.545000000    -0.195000000
H    -7.321000000     2.619000000    -0.216000000
H    -7.664000000     3.931000000     0.457000000
O    -4.228000000    -3.093000000    -4.820000000
H    -4.210000000    -4.050000000    -4.813000000
H    -4.398000000    -2.850000000    -3.910000000
O    -0.978000000    -5.283000000     3.527000000
H    -0.523000000    -4.634000000     2.991000000
H    -1.702000000    -4.800000000     3.926000000
O     2.455000000     4.702000000     1.843000000
H     2.408000000     5.429000000     2.463000000
H     1.873000000     4.958000000     1.128000000
O    -1.939000000     5.334000000     1.033000000
H    -2.688000000     4.962000000     0.569000000
H    -2.091000000     6.279000000     1.016000000
O     3.668000000     1.020000000     4.866000000
H     4.079000000     0.586000000     4.119000000
H     3.940000000     0.502000000     5.624000000
O     6.280000000     2.775000000     2.748000000
H     6.890000000     2.147000000     3.135000000
H     5.971000000     3.296000000     3.489000000
O    -7.789000000     0.743000000     0.148000000
H    -8.442000000     0.864000000     0.837000000
H    -7.044000000     0.339000000     0.592000000
O     4.738000000     4.194000000     0.871000000
H     5.223000000     3.722000000     1.548000000
H     3.923000000     4.457000000     1.298000000
O    -3.454000000     1.522000000    -4.734000000
H    -3.404000000     1.294000000    -3.806000000
H    -2.989000000     0.814000000    -5.180000000
O     3.430000000     3.398000000    -1.263000000
H     3.520000000     2.637000000    -0.689000000
H     3.714000000     4.138000000    -0.725000000
O     3.162000000    -3.215000000     1.730000000
H     3.591000000    -3.048000000     0.890000000
H     3.204000000    -4.166000000     1.834000000
O     8.761000000    -0.199000000     0.376000000
H     9.190000000     0.611000000     0.653000000
H     7.861000000     0.063000000     0.178000000
