144
-2823.02007
O    -0.138000000     3.506000000     4.219000000
H    -0.486000000     3.647000000     5.099000000
H     0.268000000     2.640000000     4.257000000
O     6.842000000    -2.624000000    -0.899000000
H     6.234000000    -3.364000000    -0.887000000
H     6.312000000    -1.885000000    -1.198000000
O     5.591000000    -5.829000000     1.214000000
H     5.066000000    -5.988000000     1.998000000
H     5.250000000    -5.009000000     0.859000000
O    -0.677000000    -4.884000000     1.182000000
H    -0.324000000    -4.202000000     1.753000000
H    -1.248000000    -5.400000000     1.750000000
O    -0.195000000    -3.243000000     3.775000000
H    -0.201000000    -3.875000000     4.494000000
H     0.582000000    -2.707000000     3.933000000
O    -5.605000000     0.109000000    -5.660000000
H    -5.655000000    -0.150000000    -4.740000000
H    -5.294000000    -0.675000000    -6.113000000
O    -3.095000000    -0.729000000     3.363000000
H    -3.570000000    -0.884000000     2.547000000
H    -2.752000000    -1.588000000     3.609000000
O    -0.233000000     5.622000000     0.598000000
H     0.394000000     5.997000000    -0.021000000
H    -0.118000000     4.676000000     0.511000000
O    -4.979000000    -0.821000000    -3.177000000
H    -4.301000000    -1.296000000    -3.657000000
H    -5.246000000    -1.421000000    -2.481000000
O     6.936000000    -1.236000000     1.924000000
H     6.269000000    -1.015000000     1.274000000
H     7.599000000    -0.551000000     1.829000000
O     1.056000000    -3.062000000    -4.457000000
H     0.251000000    -2.583000000    -4.258000000
H     1.190000000    -2.926000000    -5.395000000
O    -3.462000000     2.736000000    -4.303000000
H    -4.260000000     2.230000000    -4.456000000
H    -3.766000000     3.636000000    -4.189000000
O    -0.121000000    -0.385000000    -5.666000000
H     0.534000000    -0.276000000    -6.355000000
H    -0.376000000     0.508000000    -5.435000000
O    -5.143000000    -1.318000000     1.274000000
H    -5.424000000    -1.825000000     0.512000000
H    -5.427000000    -0.424000000     1.085000000
O     2.412000000    -0.529000000     8.352000000
H     2.057000000    -1.085000000     7.659000000
H     2.702000000     0.263000000     7.899000000
O     5.186000000    -1.368000000     6.760000000
H     5.861000000    -0.988000000     7.323000000
H     5.286000000    -0.911000000     5.925000000
O    -5.919000000     1.449000000     0.884000000
H    -5.109000000     1.931000000     1.054000000
H    -6.540000000     1.790000000     1.527000000
O     4.571000000     2.643000000    -2.080000000
H     3.742000000     2.168000000    -2.011000000
H     4.495000000     3.141000000    -2.894000000
O    -1.722000000     5.699000000    -2.416000000
H    -1.706000000     5.812000000    -1.465000000
H    -2.549000000     5.250000000    -2.590000000
O    -2.808000000     1.538000000     4.696000000
H    -2.388000000     1.263000000     5.510000000
H    -2.993000000     0.721000000     4.233000000
O     3.847000000    -3.647000000     6.167000000
H     4.219000000    -3.833000000     5.305000000
H     4.450000000    -3.013000000     6.556000000
O    -0.819000000     2.166000000    -5.228000000
H    -1.679000000     2.341000000    -4.847000000
H    -0.233000000     2.784000000    -4.790000000
O     3.636000000    -0.955000000    -4.311000000
H     4.240000000    -1.208000000    -5.009000000
H     2.933000000    -1.603000000    -4.356000000
O    -2.953000000    -3.632000000     3.361000000
H    -2.814000000    -4.442000000     2.870000000
H    -2.092000000    -3.420000000     3.722000000
O     4.359000000     0.124000000     0.394000000
H     3.827000000    -0.429000000     0.966000000
H     4.210000000     1.014000000     0.715000000
O     2.294000000     1.583000000    -3.886000000
H     2.769000000     0.755000000    -3.968000000
H     2.009000000     1.785000000    -4.777000000
O    -0.863000000    -2.376000000    -2.697000000
H    -0.767000000    -3.262000000    -2.347000000
H    -0.393000000    -1.821000000    -2.075000000
O    -4.804000000    -3.582000000    -5.007000000
H    -4.060000000    -3.308000000    -4.470000000
H    -4.680000000    -3.124000000    -5.839000000
O    -6.459000000     1.714000000    -1.933000000
H    -6.391000000     1.684000000    -0.979000000
H    -6.038000000     0.908000000    -2.229000000
O     2.707000000     2.357000000     7.135000000
H     2.168000000     2.256000000     6.350000000
H     3.583000000     2.551000000     6.800000000
O     1.758000000     3.638000000    -1.970000000
H     2.211000000     4.425000000    -1.670000000
H     2.210000000     3.394000000    -2.778000000
O     2.940000000     2.004000000     2.347000000
H     2.904000000     2.920000000     2.622000000
H     2.060000000     1.817000000     2.022000000
O     1.396000000     1.377000000     5.030000000
H     1.778000000     0.770000000     4.396000000
H     0.866000000     0.823000000     5.603000000
O     0.471000000     2.966000000     0.427000000
H     0.900000000     2.858000000    -0.422000000
H    -0.254000000     2.340000000     0.410000000
O    -0.588000000    -0.389000000     6.079000000
H    -0.002000000    -0.730000000     5.403000000
H    -0.720000000    -1.126000000     6.675000000
O     3.953000000    -3.859000000    -2.300000000
H     4.466000000    -3.925000000    -3.105000000
H     3.371000000    -4.619000000    -2.324000000
O     1.986000000    -1.667000000     5.844000000
H     2.625000000    -2.378000000     5.876000000
H     1.961000000    -1.410000000     4.922000000
O    -2.843000000    -1.681000000    -4.538000000
H    -2.214000000    -1.899000000    -3.850000000
H    -2.338000000    -1.170000000    -5.170000000
O     4.263000000     0.187000000     4.120000000
H     3.767000000    -0.414000000     3.564000000
H     4.011000000     1.059000000     3.815000000
O     0.449000000     4.822000000    -4.020000000
H    -0.441000000     4.951000000    -3.693000000
H     0.935000000     4.488000000    -3.266000000
O     2.637000000    -3.545000000     0.108000000
H     2.774000000    -2.833000000     0.734000000
H     3.150000000    -3.290000000    -0.659000000
O    -2.926000000     4.608000000     0.485000000
H    -3.095000000     3.844000000     1.037000000
H    -2.187000000     5.048000000     0.904000000
O     5.404000000    -0.434000000    -2.009000000
H     4.689000000    -0.865000000    -2.478000000
H     4.995000000    -0.084000000    -1.218000000
O     0.212000000    -4.399000000    -1.109000000
H     1.154000000    -4.363000000    -0.944000000
H    -0.170000000    -4.641000000    -0.266000000
O     2.511000000    -6.332000000    -0.062000000
H     1.630000000    -6.567000000     0.230000000
H     2.648000000    -5.447000000     0.277000000
O     6.144000000    -3.081000000     3.793000000
H     5.298000000    -3.524000000     3.726000000
H     6.167000000    -2.493000000     3.039000000
O     3.719000000    -4.171000000     3.044000000
H     3.394000000    -3.342000000     2.695000000
H     2.974000000    -4.768000000     2.978000000
O    -3.882000000     2.799000000     2.306000000
H    -3.532000000     2.278000000     3.028000000
H    -4.495000000     3.404000000     2.723000000
