144
-2831.03873
O    -3.533000000     0.321000000     4.382000000
H    -3.998000000    -0.363000000     3.900000000
H    -2.611000000     0.178000000     4.170000000
O    -2.515000000     1.125000000     8.636000000
H    -2.781000000     2.038000000     8.527000000
H    -1.893000000     0.971000000     7.925000000
O     3.104000000    -2.236000000     6.025000000
H     2.455000000    -2.801000000     6.443000000
H     3.905000000    -2.377000000     6.529000000
O    -5.644000000     4.637000000    -1.189000000
H    -5.111000000     3.917000000    -0.853000000
H    -5.015000000     5.335000000    -1.374000000
O     0.823000000    -4.149000000    -1.293000000
H     0.678000000    -3.623000000    -2.080000000
H     1.698000000    -3.899000000    -0.996000000
O    -0.798000000    -2.781000000    -3.538000000
H    -1.277000000    -2.110000000    -4.026000000
H    -1.397000000    -3.526000000    -3.505000000
O    -1.196000000    -2.391000000     5.753000000
H    -2.130000000    -2.206000000     5.657000000
H    -0.771000000    -1.819000000     5.113000000
O    -2.601000000    -4.086000000     2.212000000
H    -1.774000000    -4.219000000     2.675000000
H    -2.776000000    -4.926000000     1.788000000
O    -2.525000000     4.957000000     2.668000000
H    -2.364000000     5.595000000     3.363000000
H    -1.794000000     5.073000000     2.062000000
O    -3.997000000    -0.091000000    -3.322000000
H    -3.440000000     0.155000000    -2.583000000
H    -3.402000000    -0.520000000    -3.937000000
O     4.683000000     2.736000000    -3.083000000
H     3.910000000     2.671000000    -2.523000000
H     4.922000000     1.827000000    -3.267000000
O    -3.582000000     2.760000000    -2.791000000
H    -4.426000000     2.309000000    -2.773000000
H    -3.145000000     2.419000000    -3.571000000
O     4.707000000     0.951000000     0.933000000
H     4.981000000     0.128000000     0.530000000
H     5.511000000     1.317000000     1.302000000
O    -0.544000000     1.336000000     6.793000000
H    -0.407000000     1.038000000     5.894000000
H     0.175000000     1.946000000     6.956000000
O    -5.635000000     2.534000000     2.576000000
H    -4.907000000     2.766000000     3.154000000
H    -6.395000000     2.488000000     3.156000000
O     3.469000000    -4.044000000    -0.704000000
H     3.629000000    -3.635000000    -1.554000000
H     4.164000000    -3.704000000    -0.140000000
O    -3.004000000    -3.125000000    -0.649000000
H    -2.738000000    -3.649000000     0.107000000
H    -2.662000000    -3.603000000    -1.404000000
O     5.474000000     0.023000000    -3.401000000
H     5.291000000    -0.704000000    -3.996000000
H     5.226000000    -0.307000000    -2.537000000
O    -1.977000000     4.288000000    -0.442000000
H    -2.411000000     3.584000000    -0.924000000
H    -1.050000000     4.047000000    -0.449000000
O     2.861000000    -1.835000000     3.352000000
H     3.100000000    -2.030000000     4.258000000
H     1.920000000    -1.660000000     3.385000000
O    -1.039000000    -6.047000000     5.554000000
H    -0.344000000    -6.702000000     5.498000000
H    -0.874000000    -5.460000000     4.815000000
O     3.269000000     1.760000000     3.024000000
H     2.939000000     0.969000000     3.451000000
H     3.768000000     1.437000000     2.274000000
O    -2.089000000    -1.045000000    -5.490000000
H    -2.641000000    -1.202000000    -6.256000000
H    -1.309000000    -0.615000000    -5.841000000
O    -0.096000000    -4.172000000     3.446000000
H     0.846000000    -4.336000000     3.482000000
H    -0.170000000    -3.229000000     3.295000000
O    -4.792000000     2.445000000     0.040000000
H    -5.037000000     2.437000000     0.965000000
H    -4.379000000     1.594000000    -0.107000000
O     1.712000000     3.239000000     5.213000000
H     0.858000000     3.203000000     4.782000000
H     2.220000000     2.543000000     4.797000000
O    -0.585000000     2.938000000     3.583000000
H    -1.397000000     3.360000000     3.302000000
H    -0.789000000     2.003000000     3.581000000
O     2.646000000    -6.529000000    -2.218000000
H     2.492000000    -5.701000000    -1.761000000
H     2.204000000    -7.185000000    -1.679000000
O     2.973000000     1.846000000    -1.033000000
H     3.761000000     1.891000000    -0.491000000
H     2.713000000     0.926000000    -1.001000000
O     0.861000000     3.861000000    -0.697000000
H     1.528000000     4.539000000    -0.802000000
H     1.340000000     3.103000000    -0.364000000
O     2.146000000     0.146000000     5.233000000
H     1.435000000    -0.207000000     4.697000000
H     2.559000000    -0.625000000     5.620000000
O     0.984000000    -3.782000000     6.568000000
H     0.973000000    -4.383000000     5.823000000
H     0.301000000    -3.142000000     6.370000000
O    -3.339000000     6.101000000    -2.066000000
H    -3.219000000     5.869000000    -2.987000000
H    -2.786000000     5.482000000    -1.590000000
O     3.524000000    -2.792000000    -3.039000000
H     4.337000000    -3.104000000    -3.435000000
H     2.832000000    -3.180000000    -3.575000000
O    -0.044000000     2.058000000    -6.290000000
H     0.730000000     2.533000000    -6.594000000
H     0.099000000     1.157000000    -6.579000000
O     1.388000000    -3.728000000    -4.733000000
H     0.680000000    -3.160000000    -4.429000000
H     1.742000000    -3.280000000    -5.501000000
O    -0.445000000     4.892000000    -3.380000000
H     0.123000000     4.473000000    -2.734000000
H     0.154000000     5.369000000    -3.953000000
O     2.683000000    -4.413000000     3.162000000
H     3.402000000    -4.752000000     3.695000000
H     2.904000000    -3.492000000     3.021000000
O     0.190000000    -0.462000000    -7.147000000
H     0.890000000    -1.110000000    -7.225000000
H    -0.269000000    -0.502000000    -7.986000000
O     5.060000000    -2.204000000     1.319000000
H     4.418000000    -2.142000000     2.026000000
H     5.832000000    -1.748000000     1.655000000
O    -4.022000000     2.860000000     4.927000000
H    -3.131000000     3.164000000     5.102000000
H    -3.943000000     1.908000000     4.872000000
O    -2.560000000     1.804000000    -7.433000000
H    -3.084000000     2.547000000    -7.135000000
H    -1.674000000     1.996000000    -7.125000000
O     4.479000000    -1.200000000    -1.077000000
H     3.739000000    -1.607000000    -1.528000000
H     4.534000000    -1.664000000    -0.242000000
O    -1.357000000    -5.675000000    -0.576000000
H    -1.658000000    -5.822000000    -1.472000000
H    -0.579000000    -5.125000000    -0.672000000
O    -4.247000000    -2.055000000     3.170000000
H    -4.977000000    -2.055000000     2.550000000
H    -3.631000000    -2.695000000     2.815000000
O     1.573000000    -6.439000000     1.638000000
H     2.235000000    -5.822000000     1.950000000
H     0.768000000    -5.923000000     1.591000000
O    -0.010000000     6.017000000     1.922000000
H     0.159000000     6.254000000     1.010000000
H     0.618000000     5.320000000     2.109000000
O    -3.370000000    -0.367000000    -0.527000000
H    -2.458000000    -0.321000000    -0.240000000
H    -3.538000000    -1.303000000    -0.640000000
