144
-2809.17344
O    -3.220000000     0.536000000     5.849000000
H    -2.936000000     1.405000000     6.132000000
H    -2.670000000     0.338000000     5.091000000
O     3.201000000     3.476000000     5.720000000
H     4.023000000     3.068000000     5.995000000
H     2.552000000     3.151000000     6.344000000
O    -4.302000000     3.432000000    -3.830000000
H    -4.433000000     2.518000000    -4.081000000
H    -3.398000000     3.467000000    -3.517000000
O    -5.745000000    -0.091000000     5.968000000
H    -4.803000000     0.083000000     5.975000000
H    -6.083000000     0.388000000     6.725000000
O    -4.523000000     0.211000000    -1.579000000
H    -3.578000000     0.301000000    -1.707000000
H    -4.898000000     0.973000000    -2.020000000
O     2.603000000     3.477000000    -4.949000000
H     3.467000000     3.113000000    -4.759000000
H     2.244000000     2.902000000    -5.625000000
O    -5.261000000    -2.974000000     5.173000000
H    -4.837000000    -2.281000000     4.667000000
H    -6.046000000    -3.191000000     4.671000000
O    -3.817000000     2.055000000     2.432000000
H    -3.274000000     1.368000000     2.819000000
H    -4.395000000     2.332000000     3.143000000
O    -2.896000000    -3.835000000    -0.400000000
H    -2.000000000    -3.520000000    -0.280000000
H    -3.200000000    -4.036000000     0.485000000
O     4.269000000    -2.641000000    -1.655000000
H     3.481000000    -3.172000000    -1.771000000
H     4.967000000    -3.278000000    -1.504000000
O     3.555000000    -4.274000000    -4.102000000
H     2.780000000    -4.185000000    -3.547000000
H     3.687000000    -3.401000000    -4.470000000
O     2.550000000     2.967000000    -0.340000000
H     1.864000000     2.916000000    -1.005000000
H     2.234000000     2.411000000     0.373000000
O    -5.113000000    -2.016000000    -0.381000000
H    -4.599000000    -2.554000000    -0.984000000
H    -5.045000000    -1.129000000    -0.735000000
O    -2.638000000     4.424000000     3.461000000
H    -2.967000000     3.733000000     2.886000000
H    -2.580000000     5.196000000     2.898000000
O     1.537000000    -3.044000000     1.967000000
H     2.404000000    -3.437000000     1.861000000
H     1.631000000    -2.458000000     2.718000000
O    -0.107000000    -3.278000000    -5.383000000
H    -0.137000000    -3.956000000    -6.058000000
H    -0.276000000    -3.746000000    -4.566000000
O     5.115000000     1.920000000     2.757000000
H     5.371000000     1.047000000     3.055000000
H     4.212000000     2.021000000     3.059000000
O    -4.100000000     0.816000000    -4.096000000
H    -4.877000000     0.682000000    -4.639000000
H    -3.618000000    -0.008000000    -4.161000000
O    -2.116000000     3.592000000     6.070000000
H    -1.388000000     2.984000000     5.940000000
H    -2.385000000     3.835000000     5.185000000
O     1.830000000     1.517000000    -6.591000000
H     1.127000000     0.882000000    -6.724000000
H     2.621000000     0.985000000    -6.508000000
O     2.661000000     1.783000000     3.501000000
H     2.895000000     2.219000000     4.320000000
H     1.907000000     1.238000000     3.726000000
O     0.784000000    -1.021000000    -6.489000000
H     1.730000000    -0.992000000    -6.351000000
H     0.521000000    -1.882000000    -6.163000000
O     4.323000000    -0.553000000     5.006000000
H     4.802000000    -0.318000000     5.800000000
H     4.994000000    -0.889000000     4.412000000
O    -0.865000000    -2.304000000     4.781000000
H     0.087000000    -2.275000000     4.692000000
H    -1.175000000    -1.546000000     4.285000000
O    -3.098000000    -4.204000000     2.477000000
H    -2.989000000    -3.854000000     3.361000000
H    -2.383000000    -4.834000000     2.379000000
O    -0.534000000    -2.989000000     0.147000000
H    -0.396000000    -2.045000000     0.066000000
H     0.142000000    -3.279000000     0.759000000
O     3.512000000    -0.741000000    -6.032000000
H     4.346000000    -1.075000000    -6.363000000
H     3.704000000    -0.461000000    -5.137000000
O     1.843000000    -1.559000000     4.612000000
H     2.734000000    -1.299000000     4.846000000
H     1.355000000    -0.736000000     4.578000000
O    -6.646000000     1.771000000     0.131000000
H    -6.733000000     1.598000000    -0.806000000
H    -6.413000000     0.923000000     0.510000000
O    -0.191000000     1.928000000     6.008000000
H     0.510000000     1.669000000     6.605000000
H    -0.027000000     1.422000000     5.212000000
O     1.875000000    -4.298000000    -1.674000000
H     2.067000000    -4.816000000    -0.892000000
H     1.079000000    -4.691000000    -2.032000000
O     4.661000000     1.361000000    -0.520000000
H     3.963000000     1.897000000    -0.896000000
H     5.351000000     1.986000000    -0.298000000
O    -0.069000000     3.288000000     0.511000000
H     0.046000000     3.646000000     1.391000000
H    -0.172000000     2.346000000     0.648000000
O    -2.502000000    -1.589000000    -4.595000000
H    -1.723000000    -2.084000000    -4.344000000
H    -2.634000000    -1.802000000    -5.519000000
O    -6.165000000    -0.694000000     1.659000000
H    -5.431000000    -0.802000000     2.264000000
H    -5.915000000    -1.202000000     0.887000000
O    -0.610000000     3.344000000    -4.783000000
H    -1.118000000     3.510000000    -5.577000000
H    -0.835000000     2.446000000    -4.538000000
O     5.271000000    -1.007000000     0.897000000
H     5.267000000    -1.648000000     0.186000000
H     4.854000000    -0.231000000     0.524000000
O    -4.932000000     3.740000000     0.356000000
H    -4.448000000     3.532000000     1.155000000
H    -5.537000000     3.007000000     0.244000000
O     1.146000000     3.860000000    -2.521000000
H     0.212000000     3.943000000    -2.709000000
H     1.552000000     3.722000000    -3.377000000
O     4.827000000     1.858000000    -4.671000000
H     5.578000000     1.684000000    -5.239000000
H     4.817000000     1.125000000    -4.056000000
O    -0.904000000    -4.856000000    -2.735000000
H    -0.996000000    -4.654000000    -1.804000000
H    -1.190000000    -5.766000000    -2.812000000
O    -1.145000000     0.407000000    -7.711000000
H    -0.418000000     0.077000000    -7.183000000
H    -1.898000000    -0.117000000    -7.436000000
O     4.361000000    -0.697000000    -3.482000000
H     5.314000000    -0.736000000    -3.561000000
H     4.153000000    -1.312000000    -2.779000000
O    -3.678000000    -1.568000000     3.324000000
H    -3.388000000    -2.215000000     2.680000000
H    -2.986000000    -0.907000000     3.328000000
O    -0.022000000    -0.853000000     7.623000000
H    -0.718000000    -0.390000000     8.089000000
H    -0.480000000    -1.374000000     6.964000000
O     6.179000000    -1.126000000     3.313000000
H     6.913000000    -1.731000000     3.209000000
H     5.739000000    -1.136000000     2.463000000
O    -2.016000000     3.928000000    -1.435000000
H    -2.751000000     3.950000000    -0.822000000
H    -1.250000000     3.764000000    -0.885000000
O     0.684000000     4.935000000     2.482000000
H     0.487000000     4.744000000     3.400000000
H     1.635000000     5.040000000     2.458000000
