144
-2834.00165
O    -0.172000000     3.159000000     7.536000000
H    -0.378000000     2.496000000     6.877000000
H    -0.815000000     3.015000000     8.230000000
O    -2.015000000    -5.679000000     2.230000000
H    -2.533000000    -5.038000000     2.717000000
H    -1.169000000    -5.694000000     2.677000000
O    -4.294000000     1.950000000     2.239000000
H    -4.847000000     1.836000000     3.012000000
H    -3.437000000     1.619000000     2.507000000
O    -0.584000000     4.917000000    -2.865000000
H    -1.359000000     4.492000000    -2.498000000
H    -0.784000000     5.852000000    -2.832000000
O     3.181000000     4.599000000     0.476000000
H     3.967000000     4.984000000     0.089000000
H     2.456000000     5.073000000     0.067000000
O     2.849000000    -3.940000000    -5.124000000
H     3.752000000    -3.932000000    -5.441000000
H     2.925000000    -4.120000000    -4.187000000
O    -4.780000000    -2.653000000    -0.841000000
H    -4.165000000    -3.317000000    -0.528000000
H    -5.644000000    -3.024000000    -0.665000000
O    -0.528000000    -4.952000000    -2.582000000
H    -0.623000000    -5.566000000    -3.310000000
H    -0.848000000    -4.119000000    -2.928000000
O     2.270000000     0.127000000     1.922000000
H     1.326000000     0.057000000     1.786000000
H     2.655000000    -0.354000000     1.189000000
O    -6.213000000     0.333000000     0.578000000
H    -6.174000000     1.282000000     0.689000000
H    -5.411000000     0.010000000     0.989000000
O    -4.292000000     2.475000000    -0.981000000
H    -3.986000000     1.649000000    -0.607000000
H    -4.603000000     2.241000000    -1.856000000
O    -0.807000000     3.126000000     3.752000000
H    -1.229000000     2.267000000     3.771000000
H     0.125000000     2.937000000     3.860000000
O     1.354000000    -4.176000000     4.787000000
H     0.667000000    -4.796000000     5.030000000
H     2.112000000    -4.440000000     5.309000000
O     5.925000000     1.394000000    -4.930000000
H     6.435000000     0.641000000    -5.226000000
H     5.607000000     1.142000000    -4.063000000
O    -2.982000000     4.729000000     4.256000000
H    -3.327000000     4.977000000     3.398000000
H    -2.072000000     4.484000000     4.087000000
O    -3.238000000     4.942000000    -1.767000000
H    -3.449000000     4.199000000    -1.201000000
H    -4.048000000     5.451000000    -1.805000000
O     1.291000000     0.941000000    -6.400000000
H     1.153000000     1.359000000    -7.251000000
H     1.368000000     1.671000000    -5.785000000
O    -3.859000000    -0.040000000    -6.182000000
H    -3.134000000    -0.521000000    -6.581000000
H    -3.612000000     0.045000000    -5.261000000
O    -2.464000000    -0.322000000    -3.494000000
H    -2.175000000    -1.218000000    -3.667000000
H    -2.736000000    -0.331000000    -2.577000000
O    -1.901000000     2.266000000    -3.965000000
H    -1.406000000     2.313000000    -3.148000000
H    -2.111000000     1.337000000    -4.064000000
O    -1.417000000    -3.645000000     7.069000000
H    -0.961000000    -3.543000000     7.905000000
H    -1.470000000    -2.757000000     6.716000000
O    -2.355000000     3.850000000     1.442000000
H    -3.094000000     3.242000000     1.429000000
H    -1.889000000     3.642000000     2.252000000
O     3.066000000     1.557000000     3.959000000
H     2.715000000     2.433000000     3.800000000
H     2.919000000     1.087000000     3.138000000
O     1.874000000    -4.582000000    -0.726000000
H     1.060000000    -4.701000000    -1.216000000
H     1.590000000    -4.375000000     0.164000000
O    -1.987000000    -1.278000000     5.901000000
H    -2.933000000    -1.153000000     5.980000000
H    -1.806000000    -1.156000000     4.969000000
O     2.677000000    -1.779000000     4.292000000
H     2.524000000    -1.147000000     3.589000000
H     1.801000000    -2.040000000     4.574000000
O     3.487000000    -5.438000000    -2.753000000
H     4.414000000    -5.301000000    -2.556000000
H     3.036000000    -5.231000000    -1.934000000
O     0.792000000    -2.026000000    -5.699000000
H     0.876000000    -1.092000000    -5.890000000
H     1.664000000    -2.291000000    -5.408000000
O     4.169000000     2.014000000    -0.828000000
H     3.695000000     2.534000000    -0.179000000
H     3.838000000     1.123000000    -0.709000000
O     2.203000000     4.364000000     3.274000000
H     3.050000000     4.784000000     3.421000000
H     2.246000000     4.046000000     2.372000000
O    -0.352000000    -0.203000000     7.707000000
H    -0.838000000    -0.663000000     7.023000000
H     0.566000000    -0.404000000     7.526000000
O     4.260000000     4.306000000    -2.443000000
H     3.724000000     3.941000000    -3.146000000
H     4.320000000     3.603000000    -1.796000000
O    -5.935000000     1.228000000     4.356000000
H    -5.989000000     0.290000000     4.177000000
H    -5.859000000     1.287000000     5.309000000
O    -2.102000000    -3.762000000     0.222000000
H    -1.574000000    -4.351000000    -0.316000000
H    -2.131000000    -4.182000000     1.081000000
O    -1.654000000     6.426000000     0.497000000
H    -2.084000000     5.626000000     0.800000000
H    -0.894000000     6.117000000     0.003000000
O     4.643000000    -2.226000000    -3.197000000
H     5.280000000    -2.841000000    -2.834000000
H     5.112000000    -1.784000000    -3.905000000
O    -4.212000000    -1.432000000     1.897000000
H    -4.160000000    -1.987000000     1.119000000
H    -3.347000000    -1.503000000     2.301000000
O    -2.746000000    -3.704000000     3.803000000
H    -3.224000000    -3.231000000     4.484000000
H    -2.180000000    -3.042000000     3.405000000
O    -3.498000000     1.811000000     5.572000000
H    -3.234000000     1.269000000     4.829000000
H    -3.624000000     2.684000000     5.199000000
O    -0.669000000     4.384000000    -5.847000000
H    -1.206000000     3.836000000    -5.275000000
H     0.099000000     4.601000000    -5.318000000
O     5.506000000     0.461000000    -2.459000000
H     4.866000000    -0.249000000    -2.511000000
H     5.198000000     1.009000000    -1.737000000
O    -3.179000000    -0.157000000    -0.814000000
H    -2.518000000    -0.238000000    -0.126000000
H    -3.631000000    -1.000000000    -0.813000000
O    -1.315000000    -2.718000000    -4.170000000
H    -0.601000000    -2.492000000    -4.767000000
H    -1.954000000    -3.168000000    -4.721000000
O     1.455000000    -4.023000000     2.123000000
H     2.209000000    -3.438000000     2.190000000
H     1.159000000    -4.136000000     3.027000000
O    -6.129000000    -1.576000000     3.777000000
H    -5.529000000    -1.523000000     3.033000000
H    -6.705000000    -2.312000000     3.568000000
O    -4.794000000    -2.403000000     6.047000000
H    -5.313000000    -1.975000000     5.365000000
H    -5.112000000    -3.306000000     6.057000000
O     2.004000000     4.212000000    -3.910000000
H     1.217000000     4.565000000    -3.494000000
H     2.382000000     4.956000000    -4.378000000
O     3.918000000    -1.079000000    -0.194000000
H     3.947000000    -1.814000000    -0.806000000
H     4.770000000    -1.097000000     0.243000000
