218
-1465.53119
C    -4.558000000     3.074000000     0.267000000
H    -3.954000000     3.776000000    -0.302000000
C    -4.149000000     2.549000000     1.424000000
C    -5.010000000     1.805000000     2.150000000
H    -4.824000000     1.374000000     3.130000000
C    -2.759000000     2.872000000     1.941000000
O    -2.433000000     4.267000000     1.790000000
H    -2.042000000     2.246000000     1.390000000
O    -2.641000000     2.437000000     3.319000000
C    -1.491000000     1.835000000     3.841000000
C    -1.577000000     0.467000000     4.041000000
H    -2.435000000    -0.101000000     3.692000000
C    -0.472000000    -0.260000000     4.348000000
O    -0.529000000    -1.633000000     4.421000000
C     0.716000000     0.343000000     4.626000000
C     1.904000000    -0.368000000     5.126000000
H     2.666000000     0.245000000     5.612000000
C     2.714000000    -0.856000000     3.964000000
C     3.810000000    -0.117000000     3.502000000
H     3.971000000     0.863000000     3.945000000
H     1.547000000    -1.198000000     5.738000000
C     0.774000000     1.756000000     4.421000000
H     1.720000000     2.214000000     4.699000000
C    -0.361000000     2.507000000     4.132000000
C    -0.308000000     3.988000000     3.768000000
H     0.591000000     4.376000000     4.250000000
H    -1.179000000     4.536000000     4.133000000
C    -0.108000000     4.182000000     2.266000000
C     1.191000000     4.351000000     1.748000000
H     2.007000000     4.317000000     2.465000000
C    -1.173000000     4.506000000     1.417000000
C    -0.957000000     4.761000000     0.052000000
H    -1.809000000     4.872000000    -0.613000000
C     0.360000000     4.746000000    -0.467000000
O     0.492000000     4.509000000    -1.858000000
C     1.042000000     3.253000000    -2.309000000
C     0.275000000     2.692000000    -3.552000000
C     0.863000000     1.989000000    -4.607000000
H     1.926000000     1.834000000    -4.445000000
C    -1.075000000     2.972000000    -3.603000000
H    -1.668000000     3.542000000    -2.892000000
O     2.461000000     3.204000000    -2.520000000
H     0.849000000     2.487000000    -1.543000000
C     1.448000000     4.624000000     0.455000000
C     2.868000000     4.657000000    -0.020000000
H     3.515000000     5.136000000     0.717000000
H     2.868000000     5.303000000    -0.900000000
C     3.456000000     3.264000000    -0.322000000
C     4.092000000     2.584000000     0.692000000
H     4.172000000     3.055000000     1.668000000
C     3.324000000     2.684000000    -1.591000000
C     3.696000000     1.353000000    -1.799000000
H     3.695000000     0.881000000    -2.779000000
C     4.308000000     0.679000000    -0.799000000
O     4.721000000    -0.608000000    -1.133000000
C     3.996000000    -1.681000000    -0.614000000
C     3.772000000    -2.802000000    -1.661000000
C     3.588000000    -2.410000000    -3.025000000
H     3.605000000    -1.360000000    -3.304000000
C     3.618000000    -4.153000000    -1.284000000
H     3.605000000    -4.437000000    -0.235000000
O     4.731000000    -2.141000000     0.548000000
H     3.013000000    -1.382000000    -0.221000000
C     4.568000000     1.266000000     0.501000000
C     5.225000000     0.545000000     1.620000000
H     5.769000000     1.155000000     2.344000000
H     6.072000000     0.135000000     1.067000000
C     4.419000000    -0.498000000     2.328000000
C     4.201000000    -1.771000000     1.782000000
C     3.225000000    -2.570000000     2.296000000
H     2.935000000    -3.473000000     1.766000000
C     2.426000000    -2.003000000     3.338000000
O     1.362000000    -2.770000000     3.628000000
C     0.037000000    -2.282000000     3.215000000
H     0.207000000    -1.587000000     2.380000000
C    -0.868000000    -3.366000000     2.662000000
C    -2.259000000    -3.137000000     2.702000000
H    -2.725000000    -2.269000000     3.162000000
C    -0.320000000    -4.447000000     1.909000000
H     0.744000000    -4.531000000     1.703000000
C    -1.207000000    -5.363000000     1.292000000
O    -0.751000000    -6.188000000     0.304000000
C    -2.562000000    -5.098000000     1.301000000
H    -3.264000000    -5.677000000     0.706000000
C    -3.120000000    -4.006000000     2.015000000
O    -4.549000000    -3.851000000     2.132000000
C    -5.086000000    -2.834000000     2.945000000
C    -5.678000000    -1.787000000     2.267000000
H    -5.559000000    -1.736000000     1.188000000
C    -5.227000000    -2.938000000     4.321000000
H    -4.833000000    -3.835000000     4.791000000
C    -5.884000000    -1.929000000     5.032000000
H    -6.022000000    -1.942000000     6.110000000
C    -6.460000000    -0.829000000     4.325000000
H    -7.008000000    -0.027000000     4.813000000
C    -6.328000000    -0.739000000     2.926000000
O    -6.926000000     0.362000000     2.268000000
C    -6.185000000     1.337000000     1.596000000
C    -6.729000000     2.017000000     0.496000000
H    -7.710000000     1.717000000     0.135000000
C    -5.883000000     2.809000000    -0.237000000
O    -6.293000000     3.315000000    -1.445000000
C    -5.502000000     3.822000000    -2.396000000
C    -4.745000000     3.043000000    -3.185000000
H    -4.865000000     1.962000000    -3.198000000
C    -5.451000000     5.217000000    -2.523000000
H    -6.041000000     5.944000000    -1.972000000
C    -4.527000000     5.802000000    -3.370000000
H    -4.406000000     6.881000000    -3.333000000
C    -3.718000000     5.006000000    -4.211000000
H    -2.908000000     5.392000000    -4.825000000
C    -3.828000000     3.623000000    -4.159000000
O    -3.121000000     2.790000000    -4.941000000
C    -1.788000000     2.553000000    -4.770000000
C    -1.180000000     1.685000000    -5.695000000
H    -1.814000000     1.365000000    -6.518000000
C     0.171000000     1.522000000    -5.697000000
O     0.850000000     0.796000000    -6.617000000
C     2.070000000     0.172000000    -6.449000000
C     2.116000000    -1.117000000    -5.945000000
H     1.152000000    -1.564000000    -5.712000000
C     3.244000000     0.882000000    -6.623000000
H     3.166000000     1.934000000    -6.882000000
C     4.477000000     0.208000000    -6.424000000
H     5.434000000     0.711000000    -6.541000000
C     4.531000000    -1.078000000    -5.894000000
H     5.469000000    -1.539000000    -5.595000000
C     3.300000000    -1.786000000    -5.788000000
O     3.316000000    -3.039000000    -5.314000000
C     3.434000000    -3.456000000    -3.921000000
C     3.464000000    -4.792000000    -3.600000000
H     3.394000000    -5.557000000    -4.369000000
C     3.470000000    -5.153000000    -2.216000000
O     3.377000000    -6.475000000    -1.843000000
C     2.572000000    -6.835000000    -0.776000000
C     3.160000000    -7.362000000     0.370000000
H     4.209000000    -7.634000000     0.289000000
C     2.369000000    -7.695000000     1.467000000
H     2.817000000    -8.160000000     2.341000000
C     0.998000000    -7.298000000     1.487000000
H     0.373000000    -7.327000000     2.377000000
C     0.498000000    -6.657000000     0.354000000
C     1.288000000    -6.468000000    -0.739000000
H     0.920000000    -6.007000000    -1.652000000
C    -0.628000000    -0.780000000    -2.364000000
H    -0.350000000    -0.726000000    -3.413000000
C     0.319000000    -0.304000000    -1.424000000
H     1.278000000     0.101000000    -1.736000000
C    -0.092000000    -0.088000000    -0.125000000
C     0.841000000     0.564000000     0.860000000
H     0.411000000     0.812000000     1.833000000
H     1.608000000    -0.170000000     1.114000000
H     1.308000000     1.474000000     0.478000000
C    -1.425000000    -0.404000000     0.248000000
H    -1.721000000    -0.273000000     1.286000000
C    -2.275000000    -0.988000000    -0.610000000
H    -3.256000000    -1.354000000    -0.318000000
C    -1.912000000    -1.241000000    -1.961000000
C    -2.858000000    -1.656000000    -3.081000000
O    -4.062000000    -1.797000000    -2.953000000
O    -2.347000000    -1.983000000    -4.127000000
O    -5.130000000    -4.151000000    -2.265000000
H    -4.657000000    -4.953000000    -2.489000000
H    -4.624000000    -3.451000000    -2.680000000
O    -6.085000000    -0.721000000    -1.518000000
H    -5.339000000    -1.201000000    -1.876000000
H    -6.292000000    -0.067000000    -2.186000000
O    -7.376000000    -3.101000000    -1.171000000
H    -7.042000000    -2.209000000    -1.264000000
H    -6.804000000    -3.630000000    -1.728000000
O    -0.325000000    -3.729000000    -4.062000000
H    -0.269000000    -3.643000000    -3.110000000
H    -0.879000000    -2.998000000    -4.337000000
O    -6.421000000    -1.899000000    -4.422000000
H    -5.566000000    -1.860000000    -3.993000000
H    -6.870000000    -1.104000000    -4.133000000
O    -3.693000000    -4.513000000    -4.727000000
H    -3.614000000    -4.553000000    -5.680000000
H    -3.178000000    -3.746000000    -4.476000000
O    -4.208000000    -4.304000000    -7.498000000
H    -3.816000000    -5.018000000    -8.002000000
H    -5.044000000    -4.134000000    -7.934000000
O    -4.057000000    -7.109000000    -3.419000000
H    -4.735000000    -7.718000000    -3.709000000
H    -4.149000000    -6.353000000    -3.999000000
O    -4.627000000     0.338000000    -7.857000000
H    -4.210000000    -0.267000000    -7.244000000
H    -3.910000000     0.654000000    -8.407000000
O    -6.580000000     2.376000000    -6.122000000
H    -6.397000000     3.047000000    -6.781000000
H    -6.072000000     1.617000000    -6.408000000
O    -7.353000000     0.856000000    -3.715000000
H    -7.208000000     1.586000000    -4.317000000
H    -8.220000000     1.019000000    -3.344000000
O    -6.906000000    -4.396000000    -5.443000000
H    -7.165000000    -3.550000000    -5.079000000
H    -6.009000000    -4.525000000    -5.136000000
O     0.873000000    -4.144000000    -7.221000000
H     0.499000000    -4.722000000    -7.886000000
H     0.807000000    -4.642000000    -6.406000000
O    -1.079000000    -8.062000000    -2.704000000
H    -0.575000000    -7.448000000    -3.238000000
H    -1.993000000    -7.821000000    -2.861000000
O    -7.753000000    -2.223000000    -7.247000000
H    -7.179000000    -2.042000000    -6.503000000
H    -7.576000000    -3.137000000    -7.470000000
O    -1.375000000    -2.536000000    -8.067000000
H    -2.151000000    -2.252000000    -7.583000000
H    -0.876000000    -3.055000000    -7.436000000
O    -5.945000000    -5.592000000    -0.012000000
H    -5.818000000    -4.717000000    -0.380000000
H    -6.715000000    -5.505000000     0.549000000
O    -0.004000000    -6.438000000    -4.652000000
H    -0.028000000    -5.504000000    -4.445000000
H    -0.523000000    -6.519000000    -5.452000000
O    -3.517000000    -1.805000000    -6.374000000
H    -3.147000000    -1.938000000    -5.501000000
H    -3.975000000    -2.623000000    -6.566000000
