218
-1491.29392
C    -1.903000000    -2.934000000    -3.447000000
H    -1.791000000    -1.992000000    -3.977000000
C    -2.664000000    -3.041000000    -2.319000000
C    -2.801000000    -4.243000000    -1.687000000
H    -3.349000000    -4.373000000    -0.758000000
C    -3.291000000    -1.808000000    -1.745000000
O    -3.738000000    -0.990000000    -2.875000000
H    -2.490000000    -1.308000000    -1.182000000
O    -4.438000000    -2.131000000    -0.948000000
C    -4.428000000    -1.557000000     0.265000000
C    -3.723000000    -2.091000000     1.341000000
H    -3.388000000    -3.123000000     1.279000000
C    -3.472000000    -1.312000000     2.443000000
O    -2.760000000    -1.861000000     3.512000000
C    -3.958000000    -0.036000000     2.494000000
C    -3.961000000     0.628000000     3.816000000
H    -4.833000000     1.284000000     3.773000000
C    -2.689000000     1.455000000     3.847000000
C    -2.601000000     2.734000000     3.302000000
H    -3.542000000     3.172000000     2.980000000
H    -3.987000000     0.055000000     4.745000000
C    -4.668000000     0.455000000     1.419000000
H    -5.008000000     1.483000000     1.511000000
C    -4.838000000    -0.252000000     0.255000000
C    -5.402000000     0.459000000    -0.958000000
H    -6.022000000     1.284000000    -0.602000000
H    -5.993000000    -0.246000000    -1.546000000
C    -4.302000000     1.141000000    -1.787000000
C    -4.136000000     2.541000000    -1.643000000
H    -4.630000000     3.077000000    -0.837000000
C    -3.669000000     0.434000000    -2.794000000
C    -2.759000000     1.073000000    -3.711000000
H    -2.267000000     0.444000000    -4.448000000
C    -2.422000000     2.420000000    -3.428000000
O    -1.408000000     3.042000000    -4.088000000
C    -0.049000000     3.053000000    -3.469000000
C     1.068000000     2.499000000    -4.388000000
C     2.346000000     2.928000000    -4.163000000
H     2.415000000     3.795000000    -3.511000000
C     0.839000000     1.522000000    -5.374000000
H    -0.096000000     1.029000000    -5.625000000
O     0.120000000     4.452000000    -2.949000000
H    -0.056000000     2.396000000    -2.588000000
C    -3.090000000     3.147000000    -2.382000000
C    -2.727000000     4.579000000    -2.102000000
H    -3.632000000     5.122000000    -1.821000000
H    -2.381000000     5.066000000    -3.016000000
C    -1.578000000     4.612000000    -1.123000000
C    -1.918000000     4.663000000     0.265000000
H    -2.947000000     4.603000000     0.611000000
C    -0.258000000     4.604000000    -1.598000000
C     0.734000000     4.484000000    -0.634000000
H     1.705000000     4.139000000    -0.980000000
C     0.482000000     4.565000000     0.726000000
O     1.667000000     4.389000000     1.535000000
C     1.708000000     3.157000000     2.263000000
C     3.132000000     2.577000000     2.243000000
C     3.815000000     2.400000000     1.005000000
H     3.428000000     2.725000000     0.043000000
C     3.572000000     1.937000000     3.391000000
H     2.976000000     1.936000000     4.300000000
O     1.039000000     3.316000000     3.506000000
H     1.098000000     2.450000000     1.680000000
C    -0.853000000     4.727000000     1.176000000
C    -1.197000000     4.756000000     2.623000000
H    -2.159000000     5.220000000     2.851000000
H    -0.454000000     5.433000000     3.049000000
C    -1.370000000     3.413000000     3.310000000
C    -0.219000000     2.749000000     3.704000000
C    -0.292000000     1.478000000     4.265000000
H     0.632000000     0.962000000     4.516000000
C    -1.546000000     0.823000000     4.369000000
O    -1.513000000    -0.435000000     4.830000000
C    -1.460000000    -1.341000000     3.721000000
H    -1.183000000    -0.715000000     2.860000000
C    -0.438000000    -2.502000000     3.902000000
C    -0.624000000    -3.674000000     3.156000000
H    -1.472000000    -3.826000000     2.494000000
C     0.680000000    -2.230000000     4.702000000
H     0.829000000    -1.273000000     5.195000000
C     1.583000000    -3.317000000     4.853000000
O     2.720000000    -3.150000000     5.588000000
C     1.395000000    -4.523000000     4.177000000
H     2.151000000    -5.296000000     4.290000000
C     0.332000000    -4.685000000     3.255000000
O     0.414000000    -5.733000000     2.412000000
C    -0.648000000    -6.412000000     1.796000000
C    -0.941000000    -6.084000000     0.499000000
H    -0.482000000    -5.226000000     0.015000000
C    -1.294000000    -7.495000000     2.441000000
H    -0.993000000    -7.719000000     3.461000000
C    -2.216000000    -8.266000000     1.783000000
H    -2.707000000    -9.109000000     2.264000000
C    -2.516000000    -7.941000000     0.459000000
H    -3.301000000    -8.491000000    -0.054000000
C    -1.959000000    -6.785000000    -0.126000000
O    -2.148000000    -6.542000000    -1.452000000
C    -2.040000000    -5.324000000    -2.104000000
C    -1.123000000    -5.220000000    -3.141000000
H    -0.448000000    -6.031000000    -3.403000000
C    -1.063000000    -3.977000000    -3.862000000
O    -0.056000000    -3.752000000    -4.796000000
C    -0.106000000    -2.819000000    -5.826000000
C     0.813000000    -1.781000000    -5.793000000
H     1.641000000    -1.850000000    -5.093000000
C    -1.139000000    -2.904000000    -6.791000000
H    -1.965000000    -3.611000000    -6.780000000
C    -1.181000000    -1.980000000    -7.794000000
H    -1.935000000    -2.101000000    -8.568000000
C    -0.199000000    -1.023000000    -7.827000000
H    -0.141000000    -0.224000000    -8.561000000
C     0.820000000    -0.963000000    -6.915000000
O     1.762000000    -0.009000000    -7.025000000
C     1.926000000     1.006000000    -6.137000000
C     3.194000000     1.486000000    -5.915000000
H     3.999000000     0.993000000    -6.454000000
C     3.422000000     2.395000000    -4.876000000
O     4.713000000     2.840000000    -4.684000000
C     5.119000000     3.150000000    -3.409000000
C     5.299000000     2.169000000    -2.443000000
H     5.196000000     1.107000000    -2.647000000
C     5.310000000     4.529000000    -3.131000000
H     5.266000000     5.245000000    -3.948000000
C     5.639000000     4.869000000    -1.845000000
H     5.727000000     5.921000000    -1.584000000
C     5.906000000     3.885000000    -0.873000000
H     6.195000000     4.205000000     0.125000000
C     5.720000000     2.537000000    -1.177000000
O     5.832000000     1.605000000    -0.152000000
C     5.103000000     1.754000000     1.008000000
C     5.577000000     1.286000000     2.222000000
H     6.476000000     0.695000000     2.378000000
C     4.792000000     1.252000000     3.385000000
O     5.354000000     0.682000000     4.493000000
C     4.606000000    -0.092000000     5.408000000
C     4.338000000     0.454000000     6.688000000
H     4.663000000     1.460000000     6.942000000
C     3.528000000    -0.215000000     7.591000000
H     3.415000000     0.134000000     8.614000000
C     3.007000000    -1.482000000     7.239000000
H     2.335000000    -2.039000000     7.886000000
C     3.236000000    -1.898000000     5.926000000
C     4.155000000    -1.347000000     5.061000000
H     4.449000000    -1.859000000     4.149000000
C     0.647000000    -2.142000000    -1.355000000
H     0.698000000    -2.711000000    -2.280000000
C     0.027000000    -0.867000000    -1.296000000
H    -0.485000000    -0.397000000    -2.133000000
C     0.016000000    -0.111000000    -0.069000000
C    -0.771000000     1.117000000     0.048000000
H    -0.151000000     1.870000000    -0.444000000
H    -1.710000000     1.040000000    -0.505000000
H    -0.983000000     1.411000000     1.078000000
C     0.805000000    -0.523000000     0.985000000
H     0.787000000     0.043000000     1.913000000
C     1.376000000    -1.775000000     0.944000000
H     1.880000000    -2.053000000     1.866000000
C     1.338000000    -2.550000000    -0.216000000
C     2.212000000    -3.788000000    -0.180000000
O     2.953000000    -4.054000000     0.728000000
O     2.203000000    -4.521000000    -1.177000000
O     8.234000000    -6.842000000    -1.318000000
H     7.968000000    -6.171000000    -0.689000000
H     9.190000000    -6.854000000    -1.266000000
O     6.734000000    -4.234000000     1.838000000
H     6.684000000    -4.945000000     2.477000000
H     7.337000000    -4.555000000     1.169000000
O     5.249000000    -4.522000000    -4.331000000
H     5.737000000    -4.343000000    -5.135000000
H     5.721000000    -4.040000000    -3.652000000
O     3.933000000    -1.465000000    -4.071000000
H     3.696000000    -1.266000000    -3.165000000
H     4.836000000    -1.161000000    -4.156000000
O     2.642000000    -4.996000000    -4.065000000
H     2.143000000    -4.888000000    -3.256000000
H     3.524000000    -4.697000000    -3.845000000
O     0.376000000    -8.422000000    -1.982000000
H     1.098000000    -8.084000000    -1.453000000
H    -0.365000000    -8.467000000    -1.378000000
O     6.053000000    -5.671000000     4.022000000
H     5.267000000    -6.052000000     3.631000000
H     5.941000000    -5.804000000     4.963000000
O     3.897000000    -0.968000000    -1.296000000
H     2.944000000    -1.037000000    -1.239000000
H     4.215000000    -1.388000000    -0.497000000
O     4.217000000    -7.591000000    -2.743000000
H     4.123000000    -6.651000000    -2.588000000
H     4.961000000    -7.850000000    -2.199000000
O     1.448000000    -6.315000000    -6.066000000
H     1.720000000    -5.667000000    -5.416000000
H     1.250000000    -7.100000000    -5.555000000
O     1.706000000    -8.675000000    -4.325000000
H     1.117000000    -8.713000000    -3.571000000
H     2.577000000    -8.564000000    -3.944000000
O     6.857000000    -3.366000000    -2.420000000
H     7.805000000    -3.351000000    -2.557000000
H     6.653000000    -2.501000000    -2.066000000
O     4.886000000    -5.383000000    -0.904000000
H     5.388000000    -4.605000000    -1.148000000
H     4.035000000    -5.042000000    -0.628000000
O     3.543000000    -6.067000000     2.261000000
H     2.593000000    -5.948000000     2.265000000
H     3.867000000    -5.391000000     1.666000000
O     0.458000000    -9.882000000     0.867000000
H     0.663000000    -8.960000000     0.710000000
H     1.233000000   -10.227000000     1.311000000
O     3.991000000    -8.744000000     2.474000000
H     4.853000000    -8.861000000     2.875000000
H     3.920000000    -7.801000000     2.330000000
O     7.119000000    -0.485000000    -1.376000000
H     7.511000000    -0.675000000    -0.524000000
H     6.291000000    -0.052000000    -1.167000000
O     2.224000000    -7.557000000    -0.420000000
H     2.159000000    -6.603000000    -0.461000000
H     3.112000000    -7.749000000    -0.721000000
O     5.032000000    -2.524000000     0.859000000
H     5.742000000    -3.084000000     1.172000000
H     4.247000000    -3.066000000     0.938000000
