218
-1436.24299
C    -3.583000000     3.378000000     1.045000000
H    -2.845000000     3.993000000     0.535000000
C    -3.099000000     2.720000000     2.202000000
C    -4.100000000     1.937000000     2.924000000
H    -3.772000000     1.553000000     3.887000000
C    -1.625000000     2.808000000     2.626000000
O    -1.072000000     4.147000000     2.450000000
H    -1.025000000     2.082000000     2.057000000
O    -1.578000000     2.484000000     4.039000000
C    -0.632000000     1.568000000     4.386000000
C    -1.041000000     0.241000000     4.356000000
H    -2.077000000    -0.066000000     4.235000000
C    -0.061000000    -0.702000000     4.496000000
O    -0.459000000    -1.980000000     4.305000000
C     1.339000000    -0.391000000     4.500000000
C     2.292000000    -1.527000000     4.673000000
H     3.176000000    -1.127000000     5.173000000
C     2.693000000    -1.921000000     3.292000000
C     3.844000000    -1.325000000     2.631000000
H     4.365000000    -0.513000000     3.132000000
H     1.990000000    -2.441000000     5.189000000
C     1.733000000     0.929000000     4.584000000
H     2.763000000     1.250000000     4.716000000
C     0.719000000     1.930000000     4.455000000
C     1.142000000     3.346000000     4.318000000
H     2.079000000     3.444000000     4.870000000
H     0.431000000     4.060000000     4.739000000
C     1.291000000     3.670000000     2.854000000
C     2.495000000     3.518000000     2.271000000
H     3.288000000     3.248000000     2.964000000
C     0.225000000     4.189000000     2.078000000
C     0.452000000     4.498000000     0.783000000
H    -0.388000000     4.848000000     0.188000000
C     1.655000000     4.222000000     0.164000000
O     1.789000000     4.490000000    -1.197000000
C     1.914000000     3.354000000    -2.062000000
C     1.029000000     3.507000000    -3.351000000
C     1.397000000     2.956000000    -4.533000000
H     2.365000000     2.468000000    -4.619000000
C    -0.217000000     4.130000000    -3.214000000
H    -0.704000000     4.456000000    -2.299000000
O     3.309000000     3.110000000    -2.383000000
H     1.521000000     2.445000000    -1.584000000
C     2.732000000     3.770000000     0.885000000
C     4.184000000     3.755000000     0.313000000
H     4.985000000     4.008000000     1.010000000
H     4.221000000     4.520000000    -0.465000000
C     4.390000000     2.417000000    -0.301000000
C     4.941000000     1.376000000     0.357000000
H     5.159000000     1.505000000     1.414000000
C     3.925000000     2.181000000    -1.614000000
C     4.074000000     0.925000000    -2.254000000
H     3.690000000     0.759000000    -3.257000000
C     4.553000000    -0.141000000    -1.513000000
O     4.484000000    -1.399000000    -2.055000000
C     3.404000000    -2.312000000    -1.618000000
C     2.720000000    -3.153000000    -2.707000000
C     2.408000000    -2.418000000    -3.825000000
H     2.681000000    -1.387000000    -4.035000000
C     2.128000000    -4.389000000    -2.479000000
H     2.253000000    -4.771000000    -1.469000000
O     3.834000000    -3.140000000    -0.543000000
H     2.706000000    -1.528000000    -1.289000000
C     4.951000000     0.055000000    -0.184000000
C     5.367000000    -1.101000000     0.682000000
H     6.120000000    -0.832000000     1.427000000
H     5.945000000    -1.801000000     0.074000000
C     4.163000000    -1.718000000     1.345000000
C     3.518000000    -2.744000000     0.724000000
C     2.468000000    -3.379000000     1.362000000
H     2.038000000    -4.177000000     0.762000000
C     1.999000000    -2.926000000     2.594000000
O     0.855000000    -3.502000000     3.079000000
C    -0.296000000    -2.608000000     3.039000000
H    -0.070000000    -1.840000000     2.285000000
C    -1.433000000    -3.547000000     2.666000000
C    -2.665000000    -3.292000000     3.260000000
H    -2.755000000    -2.484000000     3.982000000
C    -1.409000000    -4.460000000     1.561000000
H    -0.500000000    -4.517000000     0.969000000
C    -2.570000000    -5.231000000     1.281000000
O    -2.524000000    -6.219000000     0.330000000
C    -3.770000000    -4.918000000     1.951000000
H    -4.611000000    -5.538000000     1.652000000
C    -3.864000000    -3.918000000     2.900000000
O    -5.077000000    -3.644000000     3.525000000
C    -5.429000000    -2.433000000     4.032000000
C    -5.598000000    -1.310000000     3.315000000
H    -5.450000000    -1.366000000     2.240000000
C    -5.481000000    -2.343000000     5.445000000
H    -5.155000000    -3.149000000     6.097000000
C    -5.787000000    -1.137000000     6.009000000
H    -5.709000000    -1.130000000     7.093000000
C    -6.123000000    -0.040000000     5.252000000
H    -6.548000000     0.879000000     5.649000000
C    -5.915000000    -0.111000000     3.922000000
O    -6.234000000     0.949000000     3.117000000
C    -5.381000000     1.731000000     2.435000000
C    -5.785000000     2.400000000     1.257000000
H    -6.779000000     2.286000000     0.833000000
C    -4.903000000     3.235000000     0.536000000
O    -5.299000000     3.773000000    -0.681000000
C    -4.562000000     4.573000000    -1.452000000
C    -3.764000000     4.121000000    -2.467000000
H    -3.627000000     3.060000000    -2.655000000
C    -4.458000000     5.921000000    -0.994000000
H    -4.858000000     6.290000000    -0.052000000
C    -3.779000000     6.846000000    -1.834000000
H    -3.665000000     7.825000000    -1.377000000
C    -3.288000000     6.464000000    -3.076000000
H    -2.861000000     7.255000000    -3.689000000
C    -3.095000000     5.089000000    -3.289000000
O    -2.369000000     4.698000000    -4.397000000
C    -1.048000000     4.236000000    -4.378000000
C    -0.647000000     3.654000000    -5.542000000
H    -1.336000000     3.573000000    -6.379000000
C     0.579000000     3.046000000    -5.661000000
O     0.988000000     2.413000000    -6.852000000
C     1.603000000     1.167000000    -6.910000000
C     1.116000000     0.042000000    -6.143000000
H     0.162000000     0.065000000    -5.623000000
C     2.788000000     1.119000000    -7.642000000
H     3.271000000     1.958000000    -8.135000000
C     3.403000000    -0.116000000    -7.788000000
H     4.218000000    -0.346000000    -8.468000000
C     2.922000000    -1.156000000    -7.009000000
H     3.352000000    -2.134000000    -7.208000000
C     1.812000000    -1.159000000    -6.193000000
O     1.241000000    -2.321000000    -5.820000000
C     1.715000000    -3.089000000    -4.818000000
C     1.149000000    -4.344000000    -4.623000000
H     0.428000000    -4.705000000    -5.352000000
C     1.274000000    -5.002000000    -3.415000000
O     0.647000000    -6.233000000    -3.274000000
C     0.111000000    -6.708000000    -2.051000000
C     1.071000000    -7.194000000    -1.198000000
H     2.058000000    -7.387000000    -1.610000000
C     0.724000000    -7.557000000     0.054000000
H     1.441000000    -8.104000000     0.661000000
C    -0.498000000    -7.284000000     0.629000000
H    -0.796000000    -7.527000000     1.646000000
C    -1.361000000    -6.565000000    -0.204000000
C    -1.069000000    -6.240000000    -1.514000000
H    -1.809000000    -5.715000000    -2.114000000
C    -1.222000000    -2.376000000    -1.823000000
H    -1.200000000    -3.017000000    -2.701000000
C    -0.123000000    -1.617000000    -1.421000000
H     0.750000000    -1.724000000    -2.059000000
C    -0.205000000    -0.764000000    -0.314000000
C     0.978000000     0.050000000     0.112000000
H     1.699000000    -0.691000000     0.465000000
H     1.407000000     0.691000000    -0.661000000
H     0.741000000     0.673000000     0.977000000
C    -1.412000000    -0.724000000     0.370000000
H    -1.567000000    -0.149000000     1.279000000
C    -2.457000000    -1.485000000    -0.068000000
H    -3.363000000    -1.514000000     0.533000000
C    -2.395000000    -2.324000000    -1.116000000
C    -3.690000000    -2.959000000    -1.616000000
O    -4.717000000    -2.785000000    -1.053000000
O    -3.751000000    -3.521000000    -2.633000000
O    -5.624000000    -5.818000000    -0.707000000
H    -6.308000000    -5.634000000    -0.064000000
H    -5.321000000    -4.955000000    -0.989000000
O    -7.578000000    -3.817000000     0.998000000
H    -7.279000000    -3.881000000     1.905000000
H    -8.530000000    -3.891000000     1.054000000
O    -2.758000000     0.324000000    -6.689000000
H    -2.777000000     0.585000000    -5.768000000
H    -3.106000000     1.082000000    -7.159000000
O    -7.128000000    -3.354000000    -2.247000000
H    -7.061000000    -4.128000000    -2.806000000
H    -6.298000000    -3.330000000    -1.771000000
O    -2.596000000    -8.054000000    -3.489000000
H    -2.888000000    -8.071000000    -2.577000000
H    -3.069000000    -7.318000000    -3.878000000
O    -5.949000000    -1.979000000    -6.245000000
H    -6.064000000    -2.887000000    -6.526000000
H    -5.826000000    -1.490000000    -7.058000000
O    -2.993000000     0.990000000    -1.466000000
H    -3.872000000     0.626000000    -1.354000000
H    -2.456000000     0.516000000    -0.831000000
O    -7.646000000     1.463000000    -1.977000000
H    -7.081000000     1.040000000    -2.624000000
H    -7.435000000     1.027000000    -1.152000000
O    -3.914000000    -5.805000000    -4.136000000
H    -3.448000000    -5.374000000    -4.853000000
H    -4.121000000    -5.098000000    -3.526000000
O    -5.271000000    -0.287000000    -0.913000000
H    -4.996000000    -1.203000000    -0.907000000
H    -6.228000000    -0.323000000    -0.914000000
O    -2.875000000     0.806000000    -4.110000000
H    -3.421000000     0.020000000    -4.095000000
H    -2.668000000     0.971000000    -3.190000000
O    -6.959000000    -5.351000000    -4.704000000
H    -6.736000000    -5.004000000    -5.568000000
H    -6.147000000    -5.748000000    -4.389000000
O   -10.030000000    -3.067000000    -2.094000000
H    -9.198000000    -3.097000000    -1.623000000
H   -10.225000000    -3.983000000    -2.293000000
O    -2.632000000    -2.888000000    -6.531000000
H    -1.937000000    -2.397000000    -6.971000000
H    -2.998000000    -2.270000000    -5.899000000
O    -4.203000000    -7.989000000    -1.117000000
H    -4.373000000    -7.062000000    -0.949000000
H    -3.850000000    -8.321000000    -0.291000000
O    -4.168000000    -1.589000000    -4.230000000
H    -4.678000000    -1.851000000    -4.997000000
H    -4.283000000    -2.307000000    -3.608000000
O    -7.538000000    -1.361000000    -0.461000000
H    -7.517000000    -2.066000000    -1.108000000
H    -7.541000000    -1.811000000     0.384000000
O    -6.275000000     0.722000000    -4.089000000
H    -6.467000000     1.058000000    -4.964000000
H    -5.555000000     0.106000000    -4.221000000
O    -8.494000000    -1.925000000    -4.818000000
H    -8.684000000    -2.795000000    -4.468000000
H    -7.620000000    -1.719000000    -4.486000000
