218
-1472.18758
C    -3.525000000     3.888000000     0.960000000
H    -2.780000000     4.667000000     0.820000000
C    -3.273000000     2.787000000     1.826000000
C    -4.139000000     1.721000000     1.924000000
H    -3.875000000     0.804000000     2.444000000
C    -1.890000000     2.733000000     2.510000000
O    -1.240000000     4.067000000     2.560000000
H    -1.356000000     2.017000000     1.868000000
O    -1.998000000     2.285000000     3.848000000
C    -1.022000000     1.455000000     4.347000000
C    -1.310000000     0.136000000     4.431000000
H    -2.284000000    -0.302000000     4.227000000
C    -0.318000000    -0.874000000     4.702000000
O    -0.790000000    -2.186000000     4.610000000
C     1.036000000    -0.507000000     4.759000000
C     2.183000000    -1.594000000     5.084000000
H     2.969000000    -1.165000000     5.708000000
C     2.606000000    -2.044000000     3.740000000
C     3.762000000    -1.522000000     3.044000000
H     4.189000000    -0.618000000     3.472000000
H     1.729000000    -2.450000000     5.587000000
C     1.329000000     0.830000000     4.624000000
H     2.382000000     1.059000000     4.770000000
C     0.337000000     1.840000000     4.491000000
C     0.773000000     3.286000000     4.543000000
H     1.663000000     3.302000000     5.177000000
H     0.040000000     3.961000000     4.990000000
C     1.101000000     3.753000000     3.125000000
C     2.407000000     3.558000000     2.630000000
H     3.176000000     3.189000000     3.303000000
C     0.095000000     4.165000000     2.194000000
C     0.419000000     4.467000000     0.894000000
H    -0.338000000     4.705000000     0.151000000
C     1.752000000     4.444000000     0.459000000
O     2.007000000     4.606000000    -0.914000000
C     2.140000000     3.467000000    -1.794000000
C     1.440000000     3.652000000    -3.138000000
C     2.078000000     3.210000000    -4.319000000
H     3.106000000     2.860000000    -4.366000000
C     0.131000000     4.081000000    -3.203000000
H    -0.359000000     4.331000000    -2.266000000
O     3.492000000     3.123000000    -1.926000000
H     1.513000000     2.708000000    -1.303000000
C     2.699000000     3.872000000     1.299000000
C     4.152000000     3.683000000     0.825000000
H     4.838000000     3.838000000     1.661000000
H     4.495000000     4.428000000     0.104000000
C     4.366000000     2.306000000     0.172000000
C     4.830000000     1.161000000     0.893000000
H     5.128000000     1.248000000     1.935000000
C     3.936000000     2.114000000    -1.139000000
C     3.945000000     0.857000000    -1.763000000
H     3.616000000     0.673000000    -2.782000000
C     4.365000000    -0.275000000    -1.023000000
O     4.242000000    -1.530000000    -1.662000000
C     3.125000000    -2.291000000    -1.150000000
C     2.349000000    -2.935000000    -2.285000000
C     2.097000000    -2.195000000    -3.439000000
H     2.486000000    -1.180000000    -3.465000000
C     1.694000000    -4.123000000    -2.152000000
H     1.885000000    -4.787000000    -1.313000000
O     3.622000000    -3.258000000    -0.207000000
H     2.416000000    -1.592000000    -0.682000000
C     4.823000000    -0.128000000     0.314000000
C     5.386000000    -1.344000000     1.094000000
H     6.065000000    -0.918000000     1.835000000
H     5.944000000    -2.040000000     0.464000000
C     4.251000000    -2.053000000     1.820000000
C     3.424000000    -2.926000000     1.169000000
C     2.314000000    -3.480000000     1.800000000
H     1.683000000    -4.172000000     1.249000000
C     1.918000000    -3.120000000     3.124000000
O     0.719000000    -3.681000000     3.624000000
C    -0.501000000    -2.936000000     3.398000000
H    -0.377000000    -2.209000000     2.582000000
C    -1.695000000    -3.755000000     2.943000000
C    -2.983000000    -3.390000000     3.335000000
H    -3.189000000    -2.530000000     3.967000000
C    -1.488000000    -4.748000000     1.991000000
H    -0.467000000    -5.055000000     1.778000000
C    -2.507000000    -5.453000000     1.415000000
O    -2.361000000    -6.484000000     0.561000000
C    -3.810000000    -5.104000000     1.846000000
H    -4.658000000    -5.697000000     1.512000000
C    -4.054000000    -4.027000000     2.689000000
O    -5.402000000    -3.758000000     2.988000000
C    -5.820000000    -2.489000000     3.249000000
C    -5.882000000    -1.603000000     2.206000000
H    -5.634000000    -1.989000000     1.220000000
C    -6.107000000    -2.060000000     4.534000000
H    -5.953000000    -2.678000000     5.415000000
C    -6.403000000    -0.689000000     4.736000000
H    -6.534000000    -0.312000000     5.747000000
C    -6.412000000     0.209000000     3.645000000
H    -6.762000000     1.231000000     3.760000000
C    -6.198000000    -0.299000000     2.362000000
O    -6.190000000     0.568000000     1.320000000
C    -5.294000000     1.656000000     1.197000000
C    -5.559000000     2.733000000     0.293000000
H    -6.463000000     2.738000000    -0.310000000
C    -4.688000000     3.797000000     0.181000000
O    -4.952000000     4.851000000    -0.647000000
C    -4.027000000     5.417000000    -1.588000000
C    -3.371000000     4.657000000    -2.565000000
H    -3.526000000     3.581000000    -2.584000000
C    -3.848000000     6.777000000    -1.576000000
H    -4.369000000     7.366000000    -0.826000000
C    -3.107000000     7.363000000    -2.613000000
H    -3.065000000     8.444000000    -2.722000000
C    -2.527000000     6.585000000    -3.646000000
H    -1.996000000     7.008000000    -4.495000000
C    -2.537000000     5.248000000    -3.540000000
O    -1.917000000     4.371000000    -4.402000000
C    -0.625000000     4.029000000    -4.361000000
C    -0.018000000     3.678000000    -5.556000000
H    -0.444000000     3.706000000    -6.556000000
C     1.303000000     3.192000000    -5.546000000
O     1.889000000     2.688000000    -6.685000000
C     2.242000000     1.333000000    -6.728000000
C     1.422000000     0.422000000    -6.125000000
H     0.479000000     0.712000000    -5.670000000
C     3.487000000     1.016000000    -7.218000000
H     4.185000000     1.661000000    -7.745000000
C     3.923000000    -0.277000000    -7.056000000
H     4.904000000    -0.569000000    -7.422000000
C     3.140000000    -1.249000000    -6.503000000
H     3.503000000    -2.273000000    -6.452000000
C     1.885000000    -0.889000000    -5.992000000
O     1.035000000    -1.903000000    -5.597000000
C     1.351000000    -2.671000000    -4.514000000
C     0.832000000    -3.976000000    -4.481000000
H     0.242000000    -4.352000000    -5.312000000
C     1.009000000    -4.650000000    -3.238000000
O     0.513000000    -5.930000000    -3.183000000
C     0.145000000    -6.661000000    -2.050000000
C     1.033000000    -7.683000000    -1.684000000
H     1.922000000    -7.924000000    -2.261000000
C     0.719000000    -8.362000000    -0.540000000
H     1.391000000    -9.119000000    -0.145000000
C    -0.454000000    -8.024000000     0.233000000
H    -0.693000000    -8.606000000     1.119000000
C    -1.251000000    -6.973000000    -0.127000000
C    -0.935000000    -6.270000000    -1.279000000
H    -1.604000000    -5.450000000    -1.528000000
C    -1.435000000    -1.795000000    -2.281000000
H    -1.283000000    -2.106000000    -3.312000000
C    -0.524000000    -0.914000000    -1.612000000
H     0.352000000    -0.453000000    -2.062000000
C    -0.682000000    -0.552000000    -0.306000000
C     0.385000000     0.290000000     0.374000000
H     1.367000000     0.144000000    -0.082000000
H     0.225000000     1.370000000     0.340000000
H     0.412000000     0.013000000     1.430000000
C    -1.800000000    -1.067000000     0.398000000
H    -1.930000000    -0.776000000     1.437000000
C    -2.737000000    -1.868000000    -0.214000000
H    -3.639000000    -2.171000000     0.310000000
C    -2.602000000    -2.156000000    -1.574000000
C    -3.781000000    -2.674000000    -2.306000000
O    -4.843000000    -2.879000000    -1.723000000
O    -3.651000000    -2.966000000    -3.492000000
O    -6.876000000    -0.780000000    -4.526000000
H    -7.479000000    -1.292000000    -5.065000000
H    -7.232000000    -0.848000000    -3.639000000
O    -5.889000000    -5.020000000    -0.869000000
H    -6.829000000    -4.842000000    -0.897000000
H    -5.480000000    -4.184000000    -1.091000000
O    -7.789000000    -3.732000000    -3.086000000
H    -6.835000000    -3.645000000    -3.087000000
H    -8.039000000    -3.605000000    -2.171000000
O    -8.552000000    -3.661000000    -0.418000000
H    -9.492000000    -3.765000000    -0.566000000
H    -8.419000000    -3.940000000     0.488000000
O    -7.089000000    -1.464000000    -1.227000000
H    -7.748000000    -2.039000000    -0.838000000
H    -6.282000000    -1.979000000    -1.209000000
O    -4.400000000    -7.343000000    -1.520000000
H    -4.936000000    -6.608000000    -1.222000000
H    -3.633000000    -7.327000000    -0.946000000
O    -4.833000000    -0.016000000    -7.588000000
H    -4.510000000     0.212000000    -8.460000000
H    -4.447000000     0.643000000    -7.010000000
O    -1.468000000     0.261000000    -4.639000000
H    -2.422000000     0.336000000    -4.665000000
H    -1.268000000     0.078000000    -3.721000000
O    -4.228000000     0.265000000    -4.465000000
H    -4.088000000     0.301000000    -3.519000000
H    -5.097000000    -0.124000000    -4.564000000
O    -2.946000000    -5.302000000    -4.822000000
H    -3.376000000    -4.698000000    -4.217000000
H    -2.440000000    -4.736000000    -5.406000000
O    -9.111000000     0.643000000    -1.131000000
H    -9.359000000     0.944000000    -2.005000000
H    -8.323000000     0.118000000    -1.272000000
O    -2.343000000    -2.386000000    -5.789000000
H    -2.759000000    -2.607000000    -4.956000000
H    -2.064000000    -1.476000000    -5.682000000
O    -3.575000000    -7.703000000    -3.991000000
H    -3.369000000    -6.783000000    -4.155000000
H    -4.005000000    -7.703000000    -3.136000000
O    -2.978000000    -2.445000000    -8.584000000
H    -2.531000000    -2.341000000    -7.743000000
H    -3.753000000    -1.888000000    -8.514000000
O    -7.524000000    -8.072000000    -2.526000000
H    -6.934000000    -7.384000000    -2.218000000
H    -8.258000000    -8.051000000    -1.912000000
O    -8.188000000    -5.489000000    -5.184000000
H    -7.714000000    -4.901000000    -4.597000000
H    -9.038000000    -5.615000000    -4.763000000
O    -4.451000000     0.345000000    -1.812000000
H    -5.319000000     0.175000000    -1.445000000
H    -3.867000000    -0.236000000    -1.324000000
O    -5.248000000     2.972000000    -4.685000000
H    -4.521000000     2.359000000    -4.791000000
H    -6.015000000     2.415000000    -4.558000000
O    -5.701000000    -3.206000000    -5.157000000
H    -4.891000000    -3.324000000    -4.661000000
H    -5.911000000    -2.278000000    -5.054000000
