218
-1469.25172
C    -1.816000000     5.369000000     0.946000000
H    -0.912000000     5.710000000     0.447000000
C    -1.619000000     4.502000000     2.005000000
C    -2.765000000     3.987000000     2.622000000
H    -2.721000000     3.156000000     3.322000000
C    -0.289000000     3.782000000     2.186000000
O     0.826000000     4.623000000     1.881000000
H    -0.257000000     2.927000000     1.494000000
O    -0.161000000     3.344000000     3.583000000
C     0.474000000     2.238000000     3.984000000
C    -0.311000000     1.186000000     4.405000000
H    -1.391000000     1.310000000     4.436000000
C     0.254000000    -0.042000000     4.679000000
O    -0.637000000    -1.066000000     4.755000000
C     1.664000000    -0.172000000     4.716000000
C     2.303000000    -1.455000000     5.089000000
H     3.281000000    -1.357000000     5.565000000
C     2.425000000    -2.289000000     3.830000000
C     3.594000000    -2.223000000     3.090000000
H     4.463000000    -1.649000000     3.403000000
H     1.768000000    -1.919000000     5.919000000
C     2.475000000     0.954000000     4.390000000
H     3.556000000     0.843000000     4.398000000
C     1.840000000     2.156000000     4.046000000
C     2.728000000     3.348000000     3.635000000
H     3.695000000     3.160000000     4.107000000
H     2.370000000     4.267000000     4.103000000
C     2.844000000     3.422000000     2.112000000
C     3.913000000     2.873000000     1.455000000
H     4.795000000     2.527000000     1.988000000
C     1.938000000     4.126000000     1.302000000
C     2.069000000     4.204000000    -0.106000000
H     1.408000000     4.845000000    -0.684000000
C     3.059000000     3.443000000    -0.713000000
O     2.913000000     3.169000000    -2.054000000
C     2.529000000     1.810000000    -2.458000000
C     1.465000000     1.865000000    -3.473000000
C     1.328000000     0.902000000    -4.508000000
H     2.111000000     0.154000000    -4.606000000
C     0.363000000     2.733000000    -3.247000000
H     0.402000000     3.417000000    -2.403000000
O     3.738000000     1.114000000    -2.903000000
H     2.071000000     1.194000000    -1.671000000
C     4.002000000     2.881000000     0.129000000
C     5.163000000     2.087000000    -0.518000000
H     6.017000000     2.202000000     0.153000000
H     5.360000000     2.549000000    -1.488000000
C     4.950000000     0.647000000    -0.814000000
C     5.203000000    -0.303000000     0.253000000
H     5.501000000    -0.004000000     1.255000000
C     4.302000000     0.186000000    -2.018000000
C     4.212000000    -1.184000000    -2.222000000
H     3.808000000    -1.575000000    -3.152000000
C     4.380000000    -2.077000000    -1.154000000
O     3.873000000    -3.347000000    -1.320000000
C     2.499000000    -3.465000000    -0.889000000
C     1.544000000    -3.990000000    -1.971000000
C     1.825000000    -4.040000000    -3.344000000
H     2.759000000    -3.788000000    -3.840000000
C     0.185000000    -4.139000000    -1.574000000
H    -0.151000000    -3.949000000    -0.558000000
O     2.575000000    -4.358000000     0.262000000
H     2.187000000    -2.451000000    -0.598000000
C     4.865000000    -1.633000000     0.044000000
C     5.010000000    -2.703000000     1.109000000
H     5.850000000    -2.432000000     1.752000000
H     5.329000000    -3.618000000     0.606000000
C     3.747000000    -2.890000000     1.849000000
C     2.651000000    -3.730000000     1.456000000
C     1.581000000    -3.977000000     2.355000000
H     0.827000000    -4.699000000     2.051000000
C     1.382000000    -3.132000000     3.455000000
O     0.156000000    -3.132000000     3.985000000
C    -0.634000000    -2.007000000     3.584000000
H    -0.196000000    -1.420000000     2.763000000
C    -2.071000000    -2.276000000     3.144000000
C    -3.006000000    -1.246000000     3.155000000
H    -2.692000000    -0.237000000     3.407000000
C    -2.425000000    -3.557000000     2.703000000
H    -1.633000000    -4.301000000     2.670000000
C    -3.789000000    -3.847000000     2.484000000
O    -4.178000000    -5.157000000     2.171000000
C    -4.705000000    -2.788000000     2.482000000
H    -5.714000000    -3.078000000     2.200000000
C    -4.290000000    -1.497000000     2.698000000
O    -5.234000000    -0.494000000     2.530000000
C    -5.235000000     0.610000000     3.371000000
C    -5.059000000     1.884000000     2.833000000
H    -4.966000000     1.925000000     1.750000000
C    -5.770000000     0.425000000     4.618000000
H    -5.939000000    -0.590000000     4.967000000
C    -5.999000000     1.532000000     5.436000000
H    -6.357000000     1.399000000     6.454000000
C    -5.724000000     2.783000000     4.962000000
H    -5.821000000     3.675000000     5.575000000
C    -5.308000000     2.968000000     3.649000000
O    -5.069000000     4.254000000     3.197000000
C    -4.067000000     4.542000000     2.336000000
C    -4.195000000     5.452000000     1.327000000
H    -5.195000000     5.813000000     1.099000000
C    -3.059000000     5.808000000     0.588000000
O    -3.080000000     6.604000000    -0.525000000
C    -2.381000000     6.352000000    -1.687000000
C    -2.538000000     5.088000000    -2.265000000
H    -3.096000000     4.321000000    -1.734000000
C    -1.668000000     7.374000000    -2.327000000
H    -1.539000000     8.332000000    -1.830000000
C    -1.035000000     7.032000000    -3.545000000
H    -0.616000000     7.837000000    -4.143000000
C    -1.121000000     5.756000000    -4.042000000
H    -0.628000000     5.520000000    -4.981000000
C    -1.841000000     4.785000000    -3.369000000
O    -1.913000000     3.451000000    -3.740000000
C    -0.840000000     2.636000000    -4.013000000
C    -0.861000000     1.754000000    -5.072000000
H    -1.815000000     1.662000000    -5.584000000
C     0.215000000     0.914000000    -5.332000000
O    -0.013000000     0.157000000    -6.494000000
C     0.554000000    -1.027000000    -6.831000000
C     0.542000000    -2.115000000    -5.952000000
H     0.169000000    -1.954000000    -4.944000000
C     1.009000000    -1.221000000    -8.177000000
H     0.866000000    -0.441000000    -8.920000000
C     1.754000000    -2.376000000    -8.463000000
H     2.200000000    -2.566000000    -9.436000000
C     1.858000000    -3.430000000    -7.508000000
H     2.303000000    -4.355000000    -7.868000000
C     1.122000000    -3.340000000    -6.343000000
O     1.067000000    -4.455000000    -5.562000000
C     0.818000000    -4.383000000    -4.254000000
C    -0.471000000    -4.694000000    -3.800000000
H    -1.227000000    -4.894000000    -4.555000000
C    -0.819000000    -4.531000000    -2.479000000
O    -2.194000000    -4.752000000    -2.170000000
C    -2.604000000    -5.567000000    -1.153000000
C    -2.369000000    -6.939000000    -1.103000000
H    -1.706000000    -7.293000000    -1.888000000
C    -2.788000000    -7.734000000    -0.071000000
H    -2.578000000    -8.798000000    -0.141000000
C    -3.521000000    -7.160000000     0.966000000
H    -3.787000000    -7.816000000     1.791000000
C    -3.674000000    -5.763000000     1.082000000
C    -3.307000000    -5.017000000    -0.044000000
H    -3.444000000    -3.939000000    -0.024000000
C    -1.086000000    -0.586000000    -2.109000000
H    -1.071000000    -1.010000000    -3.109000000
C     0.103000000    -0.396000000    -1.322000000
H     1.021000000    -0.772000000    -1.765000000
C     0.067000000    -0.064000000     0.009000000
C     1.334000000     0.066000000     0.857000000
H     1.838000000     1.027000000     0.735000000
H     1.186000000    -0.068000000     1.930000000
H     2.050000000    -0.705000000     0.563000000
C    -1.199000000     0.285000000     0.552000000
H    -1.293000000     0.711000000     1.547000000
C    -2.388000000     0.161000000    -0.152000000
H    -3.273000000     0.529000000     0.361000000
C    -2.371000000    -0.267000000    -1.540000000
C    -3.674000000    -0.445000000    -2.307000000
O    -4.752000000    -0.165000000    -1.866000000
O    -3.587000000    -0.524000000    -3.542000000
O    -5.931000000     5.445000000    -3.849000000
H    -5.746000000     5.839000000    -2.996000000
H    -5.087000000     5.100000000    -4.141000000
O    -3.222000000    -3.674000000    -6.104000000
H    -2.671000000    -3.829000000    -6.871000000
H    -3.851000000    -4.396000000    -6.111000000
O    -6.977000000    -0.145000000    -3.694000000
H    -6.173000000    -0.204000000    -3.177000000
H    -7.157000000    -1.047000000    -3.960000000
O    -9.215000000     0.561000000    -2.025000000
H    -8.473000000     0.158000000    -2.477000000
H    -8.815000000     1.129000000    -1.367000000
O    -7.707000000     2.539000000    -4.196000000
H    -8.215000000     2.153000000    -3.482000000
H    -6.816000000     2.220000000    -4.055000000
O    -3.282000000     3.784000000    -6.299000000
H    -4.065000000     3.291000000    -6.544000000
H    -3.453000000     4.674000000    -6.608000000
O    -8.535000000     0.304000000     0.796000000
H    -8.428000000     1.038000000     1.401000000
H    -8.942000000    -0.384000000     1.323000000
O    -7.312000000    -2.647000000    -4.554000000
H    -6.418000000    -2.889000000    -4.313000000
H    -7.368000000    -2.841000000    -5.490000000
O    -2.439000000     0.688000000    -8.032000000
H    -1.860000000     0.311000000    -7.370000000
H    -3.235000000     0.157000000    -7.984000000
O    -4.609000000    -3.081000000    -3.758000000
H    -3.815000000    -3.268000000    -4.258000000
H    -4.459000000    -2.213000000    -3.384000000
O    -3.877000000    -1.003000000    -5.947000000
H    -3.726000000    -1.948000000    -5.985000000
H    -3.670000000    -0.764000000    -5.044000000
O    -5.563000000    -5.445000000    -2.943000000
H    -5.596000000    -5.578000000    -3.891000000
H    -5.114000000    -4.607000000    -2.835000000
O    -5.581000000     2.951000000    -7.197000000
H    -5.778000000     2.070000000    -6.880000000
H    -6.391000000     3.441000000    -7.062000000
O    -8.204000000     2.906000000    -0.496000000
H    -7.347000000     2.485000000    -0.559000000
H    -8.588000000     2.550000000     0.305000000
O    -6.735000000    -1.329000000    -0.934000000
H    -7.164000000    -0.705000000    -0.350000000
H    -5.916000000    -0.900000000    -1.184000000
O    -8.252000000    -3.131000000    -2.027000000
H    -7.519000000    -2.660000000    -1.633000000
H    -8.026000000    -3.192000000    -2.955000000
O    -4.714000000     2.258000000    -3.798000000
H    -3.979000000     2.788000000    -4.108000000
H    -4.356000000     1.374000000    -3.721000000
O    -6.514000000     0.322000000    -6.217000000
H    -5.859000000    -0.344000000    -6.424000000
H    -6.630000000     0.257000000    -5.269000000
O    -5.523000000     2.153000000    -1.190000000
H    -5.197000000     1.258000000    -1.293000000
H    -5.318000000     2.580000000    -2.022000000
