218
-1454.97919
C    -2.302000000     4.384000000     0.768000000
H    -1.369000000     4.790000000     0.385000000
C    -2.268000000     3.575000000     1.865000000
C    -3.413000000     3.033000000     2.422000000
H    -3.373000000     2.505000000     3.371000000
C    -0.904000000     3.232000000     2.451000000
O     0.104000000     4.261000000     2.467000000
H    -0.557000000     2.387000000     1.839000000
O    -1.042000000     2.777000000     3.855000000
C    -0.489000000     1.579000000     4.279000000
C    -1.290000000     0.408000000     4.382000000
H    -2.358000000     0.475000000     4.187000000
C    -0.668000000    -0.795000000     4.656000000
O    -1.398000000    -1.924000000     4.474000000
C     0.724000000    -0.870000000     4.789000000
C     1.388000000    -2.253000000     4.917000000
H     2.208000000    -2.160000000     5.633000000
C     1.873000000    -2.779000000     3.555000000
C     3.178000000    -2.540000000     3.112000000
H     3.824000000    -1.839000000     3.634000000
H     0.668000000    -2.897000000     5.426000000
C     1.480000000     0.260000000     4.652000000
H     2.532000000     0.093000000     4.867000000
C     0.943000000     1.500000000     4.420000000
C     1.847000000     2.737000000     4.318000000
H     2.779000000     2.595000000     4.869000000
H     1.404000000     3.670000000     4.673000000
C     2.198000000     3.055000000     2.885000000
C     3.434000000     2.620000000     2.346000000
H     4.013000000     1.941000000     2.967000000
C     1.330000000     3.852000000     2.081000000
C     1.646000000     4.064000000     0.769000000
H     0.919000000     4.476000000     0.074000000
C     2.887000000     3.657000000     0.230000000
O     3.114000000     3.865000000    -1.082000000
C     2.931000000     2.671000000    -1.937000000
C     2.203000000     3.120000000    -3.169000000
C     2.358000000     2.407000000    -4.351000000
H     2.991000000     1.524000000    -4.348000000
C     1.156000000     4.072000000    -3.121000000
H     0.780000000     4.401000000    -2.155000000
O     4.217000000     1.957000000    -2.243000000
H     2.260000000     2.030000000    -1.347000000
C     3.754000000     2.909000000     0.997000000
C     5.072000000     2.430000000     0.459000000
H     5.832000000     2.423000000     1.243000000
H     5.327000000     3.165000000    -0.307000000
C     4.850000000     1.017000000    -0.098000000
C     5.013000000    -0.078000000     0.760000000
H     5.436000000     0.028000000     1.755000000
C     4.460000000     0.901000000    -1.402000000
C     4.291000000    -0.387000000    -1.883000000
H     3.976000000    -0.504000000    -2.917000000
C     4.473000000    -1.550000000    -1.084000000
O     4.190000000    -2.794000000    -1.690000000
C     2.805000000    -3.183000000    -1.299000000
C     1.931000000    -3.735000000    -2.435000000
C     1.625000000    -2.875000000    -3.519000000
H     2.106000000    -1.909000000    -3.653000000
C     1.101000000    -4.855000000    -2.283000000
H     1.228000000    -5.602000000    -1.504000000
O     2.864000000    -4.155000000    -0.167000000
H     2.273000000    -2.298000000    -0.920000000
C     4.788000000    -1.400000000     0.288000000
C     4.930000000    -2.540000000     1.262000000
H     5.586000000    -2.180000000     2.057000000
H     5.440000000    -3.430000000     0.888000000
C     3.562000000    -2.958000000     1.830000000
C     2.647000000    -3.717000000     1.071000000
C     1.384000000    -3.914000000     1.523000000
H     0.655000000    -4.411000000     0.888000000
C     1.009000000    -3.453000000     2.765000000
O    -0.300000000    -3.653000000     3.116000000
C    -1.251000000    -2.584000000     3.162000000
H    -0.916000000    -1.766000000     2.507000000
C    -2.598000000    -2.884000000     2.521000000
C    -3.700000000    -2.270000000     2.954000000
H    -3.634000000    -1.593000000     3.802000000
C    -2.715000000    -3.787000000     1.441000000
H    -1.778000000    -4.239000000     1.127000000
C    -3.959000000    -4.098000000     0.898000000
O    -4.100000000    -5.154000000    -0.043000000
C    -5.108000000    -3.349000000     1.336000000
H    -6.097000000    -3.659000000     1.008000000
C    -4.963000000    -2.457000000     2.362000000
O    -6.042000000    -1.816000000     2.791000000
C    -6.218000000    -0.649000000     3.488000000
C    -6.163000000     0.480000000     2.652000000
H    -6.383000000     0.258000000     1.611000000
C    -6.111000000    -0.575000000     4.856000000
H    -6.059000000    -1.411000000     5.549000000
C    -6.006000000     0.727000000     5.441000000
H    -5.858000000     0.918000000     6.501000000
C    -5.925000000     1.833000000     4.583000000
H    -5.870000000     2.766000000     5.138000000
C    -5.862000000     1.773000000     3.222000000
O    -5.797000000     2.928000000     2.485000000
C    -4.669000000     3.283000000     1.829000000
C    -4.732000000     4.102000000     0.704000000
H    -5.684000000     4.493000000     0.354000000
C    -3.594000000     4.669000000     0.184000000
O    -3.702000000     5.347000000    -0.980000000
C    -2.647000000     5.995000000    -1.590000000
C    -2.043000000     5.344000000    -2.653000000
H    -2.485000000     4.456000000    -3.097000000
C    -2.284000000     7.297000000    -1.249000000
H    -2.760000000     7.826000000    -0.427000000
C    -1.124000000     7.851000000    -1.807000000
H    -0.777000000     8.811000000    -1.435000000
C    -0.513000000     7.238000000    -2.912000000
H     0.354000000     7.798000000    -3.254000000
C    -0.969000000     5.988000000    -3.296000000
O    -0.366000000     5.452000000    -4.385000000
C     0.484000000     4.447000000    -4.286000000
C     0.689000000     3.742000000    -5.474000000
H     0.182000000     3.849000000    -6.429000000
C     1.642000000     2.691000000    -5.506000000
O     1.810000000     1.882000000    -6.662000000
C     2.028000000     0.540000000    -6.688000000
C     1.183000000    -0.226000000    -5.876000000
H     0.483000000     0.203000000    -5.164000000
C     2.818000000    -0.015000000    -7.654000000
H     3.539000000     0.626000000    -8.155000000
C     2.755000000    -1.368000000    -7.848000000
H     3.346000000    -1.875000000    -8.606000000
C     1.877000000    -2.173000000    -7.219000000
H     1.803000000    -3.186000000    -7.607000000
C     1.163000000    -1.595000000    -6.148000000
O     0.276000000    -2.358000000    -5.440000000
C     0.628000000    -3.216000000    -4.450000000
C    -0.070000000    -4.416000000    -4.342000000
H    -0.690000000    -4.739000000    -5.174000000
C     0.127000000    -5.232000000    -3.231000000
O    -0.592000000    -6.399000000    -3.099000000
C    -1.298000000    -6.652000000    -1.987000000
C    -0.853000000    -7.646000000    -1.127000000
H     0.008000000    -8.248000000    -1.408000000
C    -1.501000000    -7.780000000     0.107000000
H    -1.199000000    -8.660000000     0.671000000
C    -2.624000000    -7.000000000     0.460000000
H    -3.122000000    -7.073000000     1.423000000
C    -3.033000000    -5.981000000    -0.368000000
C    -2.320000000    -5.756000000    -1.575000000
H    -2.741000000    -4.957000000    -2.179000000
C    -2.035000000    -1.640000000    -1.578000000
H    -2.034000000    -2.355000000    -2.397000000
C    -0.866000000    -1.162000000    -1.031000000
H     0.093000000    -1.541000000    -1.376000000
C    -0.815000000    -0.182000000    -0.035000000
C     0.545000000     0.188000000     0.627000000
H     0.602000000    -0.089000000     1.682000000
H     1.301000000    -0.492000000     0.230000000
H     0.836000000     1.235000000     0.515000000
C    -2.026000000     0.260000000     0.525000000
H    -2.092000000     0.927000000     1.380000000
C    -3.216000000    -0.210000000    -0.026000000
H    -4.128000000     0.215000000     0.387000000
C    -3.238000000    -1.226000000    -0.984000000
C    -4.491000000    -1.798000000    -1.502000000
O    -5.490000000    -1.281000000    -1.137000000
O    -4.544000000    -2.610000000    -2.394000000
O    -4.576000000     3.228000000    -2.680000000
H    -5.187000000     2.656000000    -2.216000000
H    -3.710000000     2.935000000    -2.396000000
O    -4.223000000    -3.257000000    -5.214000000
H    -4.204000000    -2.939000000    -4.311000000
H    -5.139000000    -3.173000000    -5.478000000
O   -10.493000000    -0.308000000    -0.608000000
H    -9.962000000    -1.104000000    -0.641000000
H   -10.289000000     0.149000000    -1.423000000
O    -2.859000000     0.656000000    -5.743000000
H    -2.826000000    -0.245000000    -6.064000000
H    -3.554000000     0.651000000    -5.085000000
O    -6.940000000    -4.009000000    -1.519000000
H    -6.239000000    -3.361000000    -1.591000000
H    -6.709000000    -4.683000000    -2.158000000
O    -6.673000000    -2.854000000    -5.821000000
H    -7.244000000    -2.352000000    -6.403000000
H    -6.878000000    -2.527000000    -4.945000000
O    -8.364000000    -2.219000000     0.211000000
H    -8.384000000    -3.121000000    -0.109000000
H    -7.611000000    -1.826000000    -0.230000000
O    -5.874000000     1.220000000    -1.273000000
H    -6.657000000     1.290000000    -0.728000000
H    -5.696000000     0.281000000    -1.318000000
O    -6.984000000    -1.659000000    -3.435000000
H    -7.760000000    -2.066000000    -3.050000000
H    -6.336000000    -1.663000000    -2.730000000
O    -2.430000000    -1.935000000    -6.613000000
H    -3.191000000    -2.226000000    -6.111000000
H    -1.759000000    -2.595000000    -6.435000000
O    -5.715000000    -7.770000000    -1.771000000
H    -5.079000000    -8.466000000    -1.939000000
H    -5.282000000    -7.198000000    -1.137000000
O    -3.585000000    -5.804000000    -6.098000000
H    -4.437000000    -5.658000000    -6.509000000
H    -3.374000000    -4.968000000    -5.681000000
O    -9.239000000    -0.333000000     1.819000000
H    -9.819000000    -0.001000000     1.134000000
H    -8.980000000    -1.202000000     1.514000000
O    -3.926000000     3.255000000    -5.614000000
H    -3.659000000     2.340000000    -5.702000000
H    -4.123000000     3.359000000    -4.684000000
O    -2.430000000     2.155000000    -1.713000000
H    -2.388000000     2.123000000    -0.757000000
H    -1.880000000     1.427000000    -2.002000000
O    -5.026000000     0.260000000    -4.260000000
H    -5.161000000     0.985000000    -3.650000000
H    -5.564000000    -0.450000000    -3.911000000
O    -9.587000000    -2.613000000    -5.418000000
H    -8.958000000    -3.286000000    -5.160000000
H   -10.382000000    -3.100000000    -5.637000000
O    -8.868000000    -5.012000000    -0.137000000
H    -9.566000000    -5.248000000    -0.748000000
H    -8.187000000    -4.626000000    -0.689000000
O    -9.708000000     1.142000000    -2.750000000
H   -10.221000000     0.830000000    -3.495000000
H    -9.094000000     1.772000000    -3.129000000
