218
-1463.70020
C    -2.375000000     4.286000000     1.591000000
H    -1.532000000     4.933000000     1.359000000
C    -2.294000000     3.232000000     2.533000000
C    -3.466000000     2.520000000     2.885000000
H    -3.446000000     1.724000000     3.624000000
C    -0.939000000     2.927000000     3.106000000
O    -0.012000000     4.047000000     3.115000000
H    -0.615000000     2.082000000     2.480000000
O    -0.963000000     2.317000000     4.416000000
C    -0.234000000     1.127000000     4.592000000
C    -0.954000000    -0.062000000     4.483000000
H    -2.040000000    -0.062000000     4.435000000
C    -0.293000000    -1.282000000     4.461000000
O    -0.997000000    -2.416000000     4.262000000
C     1.092000000    -1.346000000     4.507000000
C     1.805000000    -2.737000000     4.622000000
H     2.708000000    -2.625000000     5.227000000
C     2.140000000    -3.199000000     3.127000000
C     3.343000000    -2.840000000     2.490000000
H     4.173000000    -2.486000000     3.095000000
H     1.149000000    -3.383000000     5.209000000
C     1.768000000    -0.160000000     4.707000000
H     2.852000000    -0.219000000     4.762000000
C     1.173000000     1.116000000     4.731000000
C     1.934000000     2.425000000     4.711000000
H     2.802000000     2.339000000     5.368000000
H     1.288000000     3.138000000     5.228000000
C     2.105000000     2.983000000     3.320000000
C     3.346000000     2.677000000     2.690000000
H     4.026000000     2.025000000     3.232000000
C     1.185000000     3.722000000     2.564000000
C     1.481000000     4.161000000     1.231000000
H     0.802000000     4.804000000     0.677000000
C     2.704000000     3.809000000     0.614000000
O     2.872000000     4.087000000    -0.698000000
C     2.678000000     3.064000000    -1.693000000
C     1.779000000     3.423000000    -2.799000000
C     1.814000000     2.615000000    -4.014000000
H     2.476000000     1.754000000    -4.068000000
C     0.873000000     4.497000000    -2.674000000
H     0.854000000     5.096000000    -1.767000000
O     3.920000000     2.493000000    -2.132000000
H     2.116000000     2.310000000    -1.122000000
C     3.592000000     3.023000000     1.342000000
C     4.882000000     2.505000000     0.665000000
H     5.533000000     2.288000000     1.514000000
H     5.314000000     3.239000000    -0.018000000
C     4.628000000     1.207000000    -0.100000000
C     4.905000000    -0.063000000     0.509000000
H     5.114000000    -0.110000000     1.575000000
C     4.281000000     1.292000000    -1.485000000
C     4.159000000     0.114000000    -2.182000000
H     3.979000000     0.083000000    -3.254000000
C     4.332000000    -1.105000000    -1.611000000
O     3.993000000    -2.189000000    -2.297000000
C     2.621000000    -2.660000000    -1.984000000
C     1.771000000    -3.088000000    -3.135000000
C     2.099000000    -2.711000000    -4.458000000
H     2.936000000    -2.038000000    -4.628000000
C     0.596000000    -3.843000000    -2.945000000
H     0.276000000    -4.220000000    -1.977000000
O     2.691000000    -3.744000000    -1.035000000
H     2.101000000    -1.818000000    -1.504000000
C     4.811000000    -1.223000000    -0.301000000
C     4.913000000    -2.562000000     0.453000000
H     5.824000000    -2.642000000     1.051000000
H     4.966000000    -3.365000000    -0.286000000
C     3.545000000    -2.917000000     1.089000000
C     2.472000000    -3.414000000     0.298000000
C     1.299000000    -3.937000000     0.940000000
H     0.529000000    -4.415000000     0.340000000
C     1.115000000    -3.727000000     2.302000000
O    -0.092000000    -4.100000000     2.851000000
C    -1.041000000    -3.007000000     2.895000000
H    -0.920000000    -2.349000000     2.022000000
C    -2.396000000    -3.625000000     2.667000000
C    -3.552000000    -3.107000000     3.336000000
H    -3.532000000    -2.247000000     4.000000000
C    -2.463000000    -4.635000000     1.658000000
H    -1.549000000    -5.109000000     1.309000000
C    -3.769000000    -4.911000000     1.173000000
O    -3.894000000    -5.810000000     0.150000000
C    -4.875000000    -4.326000000     1.769000000
H    -5.809000000    -4.644000000     1.314000000
C    -4.806000000    -3.404000000     2.790000000
O    -5.967000000    -2.757000000     3.295000000
C    -6.017000000    -1.467000000     3.735000000
C    -5.802000000    -0.421000000     2.854000000
H    -5.465000000    -0.605000000     1.837000000
C    -6.400000000    -1.262000000     5.068000000
H    -6.429000000    -2.128000000     5.725000000
C    -6.620000000     0.077000000     5.451000000
H    -6.813000000     0.304000000     6.497000000
C    -6.371000000     1.129000000     4.580000000
H    -6.552000000     2.179000000     4.793000000
C    -5.948000000     0.892000000     3.268000000
O    -5.816000000     1.937000000     2.397000000
C    -4.668000000     2.708000000     2.199000000
C    -4.793000000     3.775000000     1.284000000
H    -5.777000000     4.052000000     0.914000000
C    -3.624000000     4.601000000     0.987000000
O    -3.728000000     5.624000000     0.106000000
C    -2.692000000     6.244000000    -0.495000000
C    -2.382000000     5.779000000    -1.753000000
H    -2.933000000     4.917000000    -2.121000000
C    -1.936000000     7.261000000     0.054000000
H    -2.164000000     7.697000000     1.023000000
C    -0.909000000     7.794000000    -0.622000000
H    -0.430000000     8.709000000    -0.283000000
C    -0.600000000     7.354000000    -1.878000000
H     0.193000000     7.910000000    -2.370000000
C    -1.302000000     6.322000000    -2.504000000
O    -0.955000000     5.811000000    -3.690000000
C    -0.063000000     4.728000000    -3.661000000
C     0.004000000     4.014000000    -4.892000000
H    -0.691000000     4.162000000    -5.715000000
C     0.965000000     2.977000000    -5.086000000
O     0.817000000     2.163000000    -6.190000000
C     1.594000000     1.125000000    -6.619000000
C     1.187000000    -0.240000000    -6.564000000
H     0.247000000    -0.530000000    -6.101000000
C     2.645000000     1.418000000    -7.408000000
H     2.869000000     2.455000000    -7.645000000
C     3.507000000     0.443000000    -7.951000000
H     4.311000000     0.692000000    -8.639000000
C     3.189000000    -0.934000000    -7.703000000
H     3.868000000    -1.712000000    -8.042000000
C     1.976000000    -1.289000000    -7.031000000
O     1.687000000    -2.574000000    -6.783000000
C     1.342000000    -3.090000000    -5.502000000
C     0.105000000    -3.807000000    -5.319000000
H    -0.591000000    -4.097000000    -6.102000000
C    -0.258000000    -4.235000000    -4.022000000
O    -1.424000000    -4.915000000    -3.750000000
C    -1.719000000    -5.677000000    -2.629000000
C    -0.924000000    -6.835000000    -2.374000000
H    -0.100000000    -7.041000000    -3.052000000
C    -1.168000000    -7.620000000    -1.286000000
H    -0.455000000    -8.393000000    -1.010000000
C    -2.169000000    -7.304000000    -0.417000000
H    -2.119000000    -7.729000000     0.582000000
C    -2.972000000    -6.174000000    -0.729000000
C    -2.871000000    -5.439000000    -1.895000000
H    -3.577000000    -4.636000000    -2.087000000
C    -2.168000000    -1.875000000    -1.093000000
H    -2.343000000    -2.929000000    -1.294000000
C    -0.865000000    -1.450000000    -0.771000000
H    -0.021000000    -2.135000000    -0.763000000
C    -0.754000000    -0.235000000    -0.130000000
C     0.596000000     0.039000000     0.611000000
H     0.640000000    -0.279000000     1.654000000
H     1.393000000    -0.488000000     0.082000000
H     0.831000000     1.103000000     0.538000000
C    -1.810000000     0.631000000     0.014000000
H    -1.694000000     1.622000000     0.444000000
C    -3.080000000     0.245000000    -0.264000000
H    -3.944000000     0.886000000    -0.110000000
C    -3.307000000    -1.016000000    -0.901000000
C    -4.705000000    -1.527000000    -1.201000000
O    -5.680000000    -1.125000000    -0.536000000
O    -4.901000000    -2.230000000    -2.213000000
O    -4.858000000     3.246000000    -2.426000000
H    -5.451000000     2.642000000    -1.979000000
H    -4.126000000     2.698000000    -2.709000000
O    -6.051000000    -3.961000000    -4.082000000
H    -5.659000000    -3.498000000    -3.341000000
H    -6.628000000    -3.315000000    -4.490000000
O    -8.825000000    -2.669000000    -4.769000000
H    -9.174000000    -2.195000000    -5.524000000
H    -8.802000000    -2.019000000    -4.067000000
O   -10.385000000    -1.778000000    -1.303000000
H   -10.462000000    -2.599000000    -0.818000000
H   -11.274000000    -1.424000000    -1.319000000
O    -3.985000000    -0.878000000    -4.453000000
H    -4.262000000    -1.515000000    -5.112000000
H    -4.267000000    -1.257000000    -3.621000000
O    -9.557000000    -0.840000000     3.093000000
H    -9.457000000     0.102000000     3.225000000
H    -8.991000000    -1.039000000     2.346000000
O    -6.746000000    -4.393000000    -1.436000000
H    -6.181000000    -3.622000000    -1.485000000
H    -7.208000000    -4.406000000    -2.274000000
O    -5.119000000     1.683000000    -5.180000000
H    -5.228000000     0.765000000    -4.934000000
H    -5.713000000     2.159000000    -4.600000000
O    -5.608000000    -7.619000000    -1.711000000
H    -6.346000000    -7.363000000    -2.264000000
H    -5.445000000    -6.854000000    -1.159000000
O    -5.113000000    -1.423000000    -7.243000000
H    -4.615000000    -0.742000000    -7.696000000
H    -6.014000000    -1.098000000    -7.239000000
O    -7.827000000    -1.449000000     1.027000000
H    -7.840000000    -2.406000000     1.058000000
H    -7.029000000    -1.236000000     0.543000000
O    -6.544000000     1.369000000    -1.039000000
H    -7.354000000     1.254000000    -0.541000000
H    -6.022000000     0.595000000    -0.828000000
O    -7.878000000    -1.293000000    -2.408000000
H    -7.164000000    -1.233000000    -1.774000000
H    -8.652000000    -1.487000000    -1.880000000
O    -3.546000000    -3.832000000    -5.315000000
H    -2.899000000    -3.472000000    -4.708000000
H    -4.343000000    -3.918000000    -4.792000000
O    -9.028000000     1.182000000     0.323000000
H    -9.248000000     1.580000000     1.166000000
H    -8.887000000     0.257000000     0.525000000
O    -2.533000000     1.727000000    -3.467000000
H    -2.365000000     1.246000000    -2.657000000
H    -2.776000000     1.052000000    -4.101000000
O    -6.367000000    -5.728000000    -5.977000000
H    -6.332000000    -5.400000000    -5.079000000
H    -7.209000000    -6.179000000    -6.035000000
O    -7.689000000     1.250000000    -3.557000000
H    -7.601000000     0.297000000    -3.530000000
H    -7.339000000     1.547000000    -2.717000000
O    -8.283000000    -4.512000000     0.965000000
H    -9.148000000    -4.892000000     0.814000000
H    -7.795000000    -4.702000000     0.164000000
