218
-1484.98497
C    -3.427000000     3.390000000     2.550000000
H    -2.772000000     4.182000000     2.196000000
C    -2.828000000     2.388000000     3.324000000
C    -3.606000000     1.378000000     3.795000000
H    -3.252000000     0.622000000     4.492000000
C    -1.325000000     2.317000000     3.506000000
O    -0.712000000     3.653000000     3.515000000
H    -0.981000000     1.788000000     2.605000000
O    -0.931000000     1.583000000     4.704000000
C     0.166000000     0.658000000     4.631000000
C    -0.222000000    -0.692000000     4.550000000
H    -1.281000000    -0.918000000     4.459000000
C     0.757000000    -1.646000000     4.300000000
O     0.223000000    -2.864000000     3.882000000
C     2.110000000    -1.302000000     4.295000000
C     3.208000000    -2.253000000     3.971000000
H     4.194000000    -2.111000000     4.417000000
C     3.388000000    -2.470000000     2.463000000
C     4.260000000    -1.661000000     1.757000000
H     4.832000000    -0.878000000     2.247000000
H     2.858000000    -3.196000000     4.394000000
C     2.437000000     0.048000000     4.353000000
H     3.490000000     0.292000000     4.240000000
C     1.500000000     1.053000000     4.499000000
C     1.859000000     2.548000000     4.681000000
H     2.873000000     2.665000000     5.069000000
H     1.152000000     2.876000000     5.446000000
C     1.733000000     3.349000000     3.335000000
C     2.870000000     3.383000000     2.533000000
H     3.722000000     2.851000000     2.949000000
C     0.499000000     3.814000000     2.884000000
C     0.417000000     4.325000000     1.528000000
H    -0.546000000     4.585000000     1.096000000
C     1.574000000     4.360000000     0.792000000
O     1.475000000     4.903000000    -0.487000000
C     1.505000000     3.893000000    -1.565000000
C     0.382000000     4.186000000    -2.601000000
C     0.428000000     3.737000000    -3.882000000
H     1.341000000     3.244000000    -4.209000000
C    -0.847000000     4.727000000    -2.192000000
H    -1.029000000     4.939000000    -1.142000000
O     2.910000000     3.699000000    -2.155000000
H     1.128000000     3.008000000    -1.031000000
C     2.821000000     3.858000000     1.263000000
C     4.114000000     3.839000000     0.375000000
H     4.945000000     4.040000000     1.053000000
H     4.085000000     4.654000000    -0.352000000
C     4.134000000     2.577000000    -0.429000000
C     4.740000000     1.369000000     0.009000000
H     5.245000000     1.392000000     0.972000000
C     3.560000000     2.603000000    -1.708000000
C     3.486000000     1.384000000    -2.459000000
H     3.064000000     1.385000000    -3.461000000
C     4.124000000     0.265000000    -2.018000000
O     3.969000000    -0.873000000    -2.828000000
C     2.974000000    -1.803000000    -2.439000000
C     2.039000000    -2.332000000    -3.501000000
C     1.790000000    -1.542000000    -4.648000000
H     2.263000000    -0.571000000    -4.773000000
C     1.448000000    -3.574000000    -3.390000000
H     1.694000000    -4.293000000    -2.613000000
O     3.621000000    -2.823000000    -1.678000000
H     2.281000000    -1.245000000    -1.792000000
C     4.724000000     0.206000000    -0.767000000
C     5.406000000    -1.083000000    -0.320000000
H     6.234000000    -0.880000000     0.362000000
H     5.845000000    -1.648000000    -1.144000000
C     4.360000000    -1.824000000     0.373000000
C     3.612000000    -2.748000000    -0.335000000
C     2.680000000    -3.513000000     0.379000000
H     1.842000000    -3.951000000    -0.158000000
C     2.594000000    -3.388000000     1.732000000
O     1.579000000    -4.071000000     2.375000000
C     0.318000000    -3.345000000     2.502000000
H     0.365000000    -2.490000000     1.812000000
C    -0.834000000    -4.215000000     2.134000000
C    -2.158000000    -3.857000000     2.501000000
H    -2.326000000    -2.989000000     3.134000000
C    -0.716000000    -5.259000000     1.160000000
H     0.272000000    -5.555000000     0.816000000
C    -1.854000000    -6.043000000     0.793000000
O    -1.693000000    -7.134000000    -0.114000000
C    -3.107000000    -5.775000000     1.356000000
H    -3.993000000    -6.322000000     1.042000000
C    -3.264000000    -4.621000000     2.161000000
O    -4.475000000    -3.932000000     2.235000000
C    -4.919000000    -3.151000000     3.324000000
C    -4.998000000    -1.780000000     3.093000000
H    -4.667000000    -1.246000000     2.206000000
C    -5.321000000    -3.775000000     4.458000000
H    -5.160000000    -4.839000000     4.612000000
C    -5.950000000    -2.990000000     5.452000000
H    -6.480000000    -3.480000000     6.265000000
C    -6.177000000    -1.621000000     5.267000000
H    -6.557000000    -0.937000000     6.022000000
C    -5.656000000    -1.012000000     4.084000000
O    -5.778000000     0.338000000     3.989000000
C    -4.971000000     1.221000000     3.456000000
C    -5.581000000     2.264000000     2.693000000
H    -6.654000000     2.227000000     2.517000000
C    -4.848000000     3.313000000     2.225000000
O    -5.483000000     4.257000000     1.471000000
C    -4.804000000     5.056000000     0.586000000
C    -4.361000000     4.617000000    -0.658000000
H    -4.741000000     3.693000000    -1.086000000
C    -4.504000000     6.364000000     1.107000000
H    -4.916000000     6.726000000     2.046000000
C    -3.713000000     7.223000000     0.356000000
H    -3.496000000     8.201000000     0.778000000
C    -3.281000000     6.804000000    -0.926000000
H    -2.842000000     7.489000000    -1.647000000
C    -3.565000000     5.531000000    -1.405000000
O    -3.269000000     5.202000000    -2.708000000
C    -1.984000000     4.777000000    -3.073000000
C    -1.805000000     4.425000000    -4.409000000
H    -2.634000000     4.489000000    -5.110000000
C    -0.621000000     3.848000000    -4.796000000
O    -0.313000000     3.595000000    -6.142000000
C     0.542000000     2.553000000    -6.456000000
C     0.063000000     1.219000000    -6.350000000
H    -0.959000000     0.998000000    -6.053000000
C     1.831000000     2.824000000    -7.009000000
H     2.203000000     3.846000000    -7.020000000
C     2.703000000     1.814000000    -7.377000000
H     3.700000000     2.101000000    -7.700000000
C     2.266000000     0.474000000    -7.159000000
H     2.957000000    -0.315000000    -7.444000000
C     0.943000000     0.209000000    -6.674000000
O     0.506000000    -1.097000000    -6.592000000
C     0.883000000    -1.958000000    -5.611000000
C     0.345000000    -3.241000000    -5.498000000
H    -0.381000000    -3.618000000    -6.214000000
C     0.612000000    -4.040000000    -4.409000000
O    -0.104000000    -5.220000000    -4.269000000
C     0.148000000    -6.119000000    -3.197000000
C     1.301000000    -6.894000000    -3.179000000
H     2.150000000    -6.740000000    -3.840000000
C     1.338000000    -7.872000000    -2.253000000
H     2.146000000    -8.599000000    -2.245000000
C     0.394000000    -7.969000000    -1.224000000
H     0.504000000    -8.700000000    -0.427000000
C    -0.742000000    -7.106000000    -1.155000000
C    -0.864000000    -6.155000000    -2.198000000
H    -1.716000000    -5.482000000    -2.244000000
C    -1.834000000    -2.180000000    -0.596000000
H    -1.892000000    -3.077000000    -1.207000000
C    -0.630000000    -1.597000000    -0.369000000
H     0.346000000    -2.017000000    -0.598000000
C    -0.640000000    -0.277000000     0.192000000
C     0.760000000     0.321000000     0.377000000
H     1.350000000     0.476000000    -0.529000000
H     0.641000000     1.272000000     0.901000000
H     1.365000000    -0.326000000     1.015000000
C    -1.806000000     0.436000000     0.276000000
H    -1.737000000     1.468000000     0.611000000
C    -3.032000000    -0.206000000     0.137000000
H    -3.978000000     0.322000000     0.224000000
C    -3.031000000    -1.501000000    -0.375000000
C    -4.397000000    -2.088000000    -0.674000000
O    -5.415000000    -1.444000000    -0.544000000
O    -4.458000000    -3.200000000    -1.165000000
O    -8.818000000    -2.942000000     2.443000000
H    -8.719000000    -3.835000000     2.775000000
H    -8.068000000    -2.818000000     1.861000000
O    -3.245000000     1.590000000    -2.182000000
H    -2.644000000     1.162000000    -1.573000000
H    -4.115000000     1.319000000    -1.889000000
O    -7.469000000    -6.432000000     0.150000000
H    -7.734000000    -5.650000000     0.635000000
H    -7.039000000    -6.984000000     0.803000000
O    -2.685000000    -3.449000000    -3.482000000
H    -2.475000000    -4.381000000    -3.531000000
H    -3.266000000    -3.373000000    -2.725000000
O    -5.418000000     2.709000000    -4.123000000
H    -5.254000000     2.178000000    -4.902000000
H    -5.251000000     2.117000000    -3.390000000
O    -3.195000000    -1.592000000    -5.371000000
H    -2.641000000    -2.081000000    -5.979000000
H    -2.933000000    -1.904000000    -4.504000000
O    -8.796000000     0.359000000    -2.404000000
H    -8.525000000     1.085000000    -2.965000000
H    -9.467000000    -0.098000000    -2.911000000
O    -6.428000000    -4.419000000    -4.042000000
H    -7.144000000    -4.142000000    -3.471000000
H    -5.713000000    -4.635000000    -3.443000000
O    -7.520000000    -2.126000000    -2.050000000
H    -7.725000000    -1.213000000    -2.248000000
H    -6.596000000    -2.117000000    -1.803000000
O    -5.794000000     0.897000000    -1.836000000
H    -6.732000000     0.981000000    -1.663000000
H    -5.556000000     0.051000000    -1.455000000
O    -3.236000000     1.179000000    -4.999000000
H    -3.297000000     1.434000000    -4.078000000
H    -3.088000000     0.234000000    -4.976000000
O    -6.901000000    -3.164000000     0.656000000
H    -6.632000000    -2.568000000    -0.044000000
H    -6.111000000    -3.664000000     0.861000000
O    -8.834000000     0.336000000     3.579000000
H    -7.879000000     0.405000000     3.604000000
H    -9.036000000     0.153000000     2.661000000
O    -7.776000000    -3.714000000    -6.399000000
H    -8.499000000    -3.173000000    -6.082000000
H    -7.111000000    -3.652000000    -5.714000000
O    -5.266000000    -5.766000000    -1.727000000
H    -4.862000000    -4.971000000    -1.377000000
H    -6.006000000    -5.935000000    -1.144000000
O    -5.379000000    -0.867000000    -7.024000000
H    -4.882000000    -1.253000000    -6.303000000
H    -4.746000000    -0.789000000    -7.737000000
O   -10.082000000    -3.165000000    -1.861000000
H    -9.142000000    -3.120000000    -1.688000000
H   -10.463000000    -2.494000000    -1.295000000
O    -8.186000000     0.069000000     0.404000000
H    -7.572000000    -0.653000000     0.542000000
H    -8.712000000    -0.205000000    -0.347000000
O    -5.047000000    -8.224000000    -2.598000000
H    -5.198000000    -7.279000000    -2.559000000
H    -5.924000000    -8.605000000    -2.637000000
