218
-1487.93827
C    -3.299000000     3.056000000     1.665000000
H    -2.466000000     3.575000000     1.196000000
C    -3.060000000     2.139000000     2.762000000
C    -4.197000000     1.529000000     3.300000000
H    -4.137000000     1.023000000     4.261000000
C    -1.684000000     2.045000000     3.383000000
O    -1.116000000     3.293000000     3.575000000
H    -1.132000000     1.520000000     2.590000000
O    -1.642000000     1.362000000     4.659000000
C    -0.742000000     0.358000000     4.720000000
C    -1.176000000    -0.986000000     4.498000000
H    -2.215000000    -1.295000000     4.418000000
C    -0.188000000    -1.955000000     4.465000000
O    -0.491000000    -3.199000000     4.008000000
C     1.181000000    -1.719000000     4.659000000
C     2.247000000    -2.735000000     4.357000000
H     3.131000000    -2.664000000     4.994000000
C     2.641000000    -2.954000000     2.931000000
C     3.666000000    -2.140000000     2.389000000
H     4.195000000    -1.453000000     3.045000000
H     1.942000000    -3.751000000     4.614000000
C     1.548000000    -0.410000000     4.934000000
H     2.590000000    -0.168000000     5.129000000
C     0.601000000     0.617000000     5.009000000
C     1.037000000     2.075000000     5.145000000
H     2.003000000     2.116000000     5.652000000
H     0.293000000     2.726000000     5.609000000
C     1.268000000     2.758000000     3.814000000
C     2.524000000     2.704000000     3.225000000
H     3.318000000     2.117000000     3.680000000
C     0.195000000     3.493000000     3.185000000
C     0.461000000     4.209000000     2.004000000
H    -0.374000000     4.643000000     1.459000000
C     1.727000000     4.201000000     1.451000000
O     1.882000000     4.670000000     0.114000000
C     1.927000000     3.758000000    -1.001000000
C     1.171000000     4.270000000    -2.242000000
C     1.655000000     4.023000000    -3.506000000
H     2.594000000     3.484000000    -3.607000000
C     0.032000000     5.039000000    -2.191000000
H    -0.251000000     5.344000000    -1.187000000
O     3.315000000     3.586000000    -1.310000000
H     1.398000000     2.836000000    -0.718000000
C     2.767000000     3.430000000     2.081000000
C     4.120000000     3.381000000     1.433000000
H     5.041000000     3.362000000     2.018000000
H     4.229000000     4.298000000     0.850000000
C     4.298000000     2.267000000     0.439000000
C     4.737000000     0.960000000     0.856000000
H     5.016000000     0.772000000     1.890000000
C     3.883000000     2.396000000    -0.891000000
C     3.925000000     1.326000000    -1.775000000
H     3.616000000     1.504000000    -2.802000000
C     4.289000000     0.062000000    -1.320000000
O     4.035000000    -1.001000000    -2.191000000
C     2.937000000    -1.921000000    -1.827000000
C     2.109000000    -2.233000000    -3.083000000
C     2.003000000    -1.311000000    -4.125000000
H     2.485000000    -0.350000000    -3.965000000
C     1.409000000    -3.444000000    -3.247000000
H     1.335000000    -4.140000000    -2.415000000
O     3.482000000    -3.135000000    -1.240000000
H     2.177000000    -1.492000000    -1.156000000
C     4.695000000    -0.131000000    -0.017000000
C     5.157000000    -1.494000000     0.478000000
H     5.905000000    -1.251000000     1.235000000
H     5.710000000    -2.013000000    -0.308000000
C     4.027000000    -2.300000000     1.026000000
C     3.351000000    -3.218000000     0.160000000
C     2.325000000    -3.996000000     0.759000000
H     1.805000000    -4.751000000     0.174000000
C     2.017000000    -3.845000000     2.075000000
O     0.894000000    -4.463000000     2.513000000
C    -0.288000000    -3.589000000     2.624000000
H    -0.046000000    -2.689000000     2.039000000
C    -1.464000000    -4.244000000     1.948000000
C    -2.691000000    -3.661000000     2.001000000
H    -2.712000000    -2.721000000     2.547000000
C    -1.255000000    -5.332000000     1.083000000
H    -0.263000000    -5.775000000     1.054000000
C    -2.362000000    -5.800000000     0.291000000
O    -2.150000000    -6.814000000    -0.602000000
C    -3.608000000    -5.236000000     0.388000000
H    -4.411000000    -5.615000000    -0.238000000
C    -3.759000000    -4.122000000     1.238000000
O    -4.947000000    -3.521000000     1.294000000
C    -5.396000000    -2.680000000     2.270000000
C    -5.686000000    -1.335000000     2.004000000
H    -5.455000000    -1.059000000     0.978000000
C    -5.432000000    -3.234000000     3.579000000
H    -5.084000000    -4.261000000     3.644000000
C    -6.042000000    -2.487000000     4.536000000
H    -6.141000000    -3.053000000     5.459000000
C    -6.480000000    -1.152000000     4.251000000
H    -7.048000000    -0.670000000     5.042000000
C    -6.243000000    -0.609000000     3.037000000
O    -6.462000000     0.747000000     2.941000000
C    -5.438000000     1.537000000     2.588000000
C    -5.588000000     2.337000000     1.494000000
H    -6.573000000     2.346000000     1.034000000
C    -4.555000000     3.127000000     1.051000000
O    -4.846000000     3.927000000    -0.018000000
C    -4.035000000     5.039000000    -0.326000000
C    -3.330000000     5.016000000    -1.506000000
H    -3.461000000     4.134000000    -2.128000000
C    -3.977000000     6.131000000     0.540000000
H    -4.498000000     6.153000000     1.494000000
C    -3.204000000     7.297000000     0.163000000
H    -3.227000000     8.162000000     0.821000000
C    -2.497000000     7.323000000    -1.049000000
H    -1.853000000     8.159000000    -1.310000000
C    -2.560000000     6.168000000    -1.864000000
O    -1.839000000     6.195000000    -3.044000000
C    -0.727000000     5.424000000    -3.263000000
C    -0.192000000     5.250000000    -4.528000000
H    -0.834000000     5.474000000    -5.376000000
C     0.998000000     4.482000000    -4.662000000
O     1.482000000     4.129000000    -5.893000000
C     2.034000000     2.936000000    -6.234000000
C     1.305000000     1.733000000    -5.977000000
H     0.352000000     1.824000000    -5.463000000
C     3.293000000     2.906000000    -6.856000000
H     3.827000000     3.834000000    -7.039000000
C     3.793000000     1.683000000    -7.268000000
H     4.720000000     1.499000000    -7.805000000
C     3.129000000     0.502000000    -6.988000000
H     3.547000000    -0.441000000    -7.330000000
C     1.842000000     0.542000000    -6.395000000
O     1.043000000    -0.581000000    -6.202000000
C     1.335000000    -1.600000000    -5.279000000
C     0.633000000    -2.750000000    -5.439000000
H     0.100000000    -3.020000000    -6.347000000
C     0.586000000    -3.657000000    -4.382000000
O    -0.241000000    -4.712000000    -4.521000000
C    -0.240000000    -5.726000000    -3.636000000
C     0.668000000    -6.756000000    -3.711000000
H     1.366000000    -6.709000000    -4.544000000
C     0.611000000    -7.894000000    -2.811000000
H     1.226000000    -8.791000000    -2.800000000
C    -0.260000000    -7.885000000    -1.760000000
H    -0.299000000    -8.654000000    -0.993000000
C    -1.183000000    -6.799000000    -1.660000000
C    -1.172000000    -5.760000000    -2.541000000
H    -1.947000000    -5.002000000    -2.456000000
C    -1.664000000    -1.990000000    -0.847000000
H    -1.709000000    -2.953000000    -1.350000000
C    -0.521000000    -1.495000000    -0.253000000
H     0.313000000    -2.189000000    -0.181000000
C    -0.479000000    -0.246000000     0.307000000
C     0.823000000     0.235000000     0.960000000
H     0.998000000    -0.431000000     1.807000000
H     1.571000000     0.053000000     0.186000000
H     0.863000000     1.252000000     1.356000000
C    -1.636000000     0.548000000     0.177000000
H    -1.549000000     1.525000000     0.646000000
C    -2.771000000     0.031000000    -0.340000000
H    -3.628000000     0.700000000    -0.346000000
C    -2.798000000    -1.276000000    -0.839000000
C    -4.016000000    -1.719000000    -1.588000000
O    -5.058000000    -1.094000000    -1.532000000
O    -3.929000000    -2.560000000    -2.445000000
O    -4.338000000     1.357000000    -2.629000000
H    -4.540000000     0.464000000    -2.353000000
H    -4.882000000     1.911000000    -2.069000000
O    -2.664000000    -2.790000000    -4.727000000
H    -2.354000000    -3.646000000    -5.026000000
H    -2.955000000    -2.942000000    -3.828000000
O    -1.964000000    -0.276000000    -5.430000000
H    -1.205000000    -0.458000000    -5.984000000
H    -2.173000000    -1.119000000    -5.027000000
O    -3.578000000    -5.938000000    -5.144000000
H    -4.491000000    -5.673000000    -5.255000000
H    -3.282000000    -6.154000000    -6.028000000
O    -8.683000000    -1.043000000     0.794000000
H    -9.199000000    -0.886000000     1.585000000
H    -8.282000000    -1.901000000     0.936000000
O    -8.535000000     0.850000000    -3.587000000
H    -7.770000000     1.104000000    -4.103000000
H    -8.214000000     0.808000000    -2.686000000
O    -7.126000000    -3.408000000    -4.774000000
H    -6.657000000    -2.573000000    -4.750000000
H    -6.581000000    -3.973000000    -5.322000000
O    -6.083000000     2.010000000    -4.573000000
H    -5.236000000     1.829000000    -4.164000000
H    -6.054000000     1.532000000    -5.402000000
O    -6.020000000    -1.201000000    -3.972000000
H    -5.143000000    -1.060000000    -4.328000000
H    -5.871000000    -1.437000000    -3.056000000
O    -7.654000000    -0.759000000    -6.810000000
H    -8.130000000    -0.629000000    -5.990000000
H    -6.738000000    -0.844000000    -6.544000000
O    -7.473000000     0.347000000    -1.073000000
H    -7.856000000    -0.225000000    -0.408000000
H    -6.645000000    -0.075000000    -1.302000000
O    -1.725000000     1.905000000    -3.698000000
H    -2.525000000     1.802000000    -3.183000000
H    -1.584000000     1.046000000    -4.096000000
O    -8.168000000    -4.008000000     0.628000000
H    -7.619000000    -3.700000000    -0.093000000
H    -7.590000000    -4.567000000     1.148000000
O    -4.053000000     0.930000000    -6.471000000
H    -3.304000000     0.384000000    -6.233000000
H    -4.402000000     0.525000000    -7.265000000
O    -4.812000000    -4.887000000    -3.170000000
H    -4.601000000    -3.984000000    -2.930000000
H    -4.069000000    -5.173000000    -3.701000000
O    -5.141000000    -2.211000000    -6.594000000
H    -4.655000000    -2.883000000    -6.116000000
H    -4.516000000    -1.877000000    -7.239000000
O    -9.544000000    -2.853000000    -2.816000000
H    -9.189000000    -3.301000000    -2.048000000
H    -8.830000000    -2.867000000    -3.453000000
O    -6.916000000    -3.208000000    -1.653000000
H    -6.910000000    -3.693000000    -2.478000000
H    -6.044000000    -2.818000000    -1.598000000
O    -6.204000000    -7.018000000    -2.666000000
H    -5.573000000    -6.300000000    -2.710000000
H    -6.904000000    -6.758000000    -3.265000000
