218
-1460.06197
C    -4.594000000     1.828000000     2.126000000
H    -4.287000000     2.825000000     1.821000000
C    -3.832000000     1.053000000     2.956000000
C    -4.300000000    -0.193000000     3.294000000
H    -3.755000000    -0.941000000     3.864000000
C    -2.406000000     1.454000000     3.238000000
O    -2.208000000     2.917000000     3.049000000
H    -1.847000000     0.757000000     2.597000000
O    -1.973000000     1.044000000     4.489000000
C    -0.676000000     0.732000000     4.543000000
C    -0.531000000    -0.632000000     4.444000000
H    -1.403000000    -1.271000000     4.558000000
C     0.738000000    -1.220000000     4.492000000
O     0.893000000    -2.557000000     4.278000000
C     1.847000000    -0.386000000     4.505000000
C     3.257000000    -0.909000000     4.380000000
H     3.943000000    -0.286000000     4.957000000
C     3.659000000    -1.105000000     2.935000000
C     4.386000000    -0.078000000     2.310000000
H     4.599000000     0.779000000     2.944000000
H     3.318000000    -1.818000000     4.982000000
C     1.660000000     1.006000000     4.537000000
H     2.564000000     1.609000000     4.561000000
C     0.383000000     1.566000000     4.592000000
C     0.175000000     3.082000000     4.507000000
H     1.040000000     3.527000000     5.003000000
H    -0.722000000     3.404000000     5.039000000
C     0.160000000     3.564000000     3.065000000
C     1.272000000     4.046000000     2.397000000
H     2.237000000     4.062000000     2.898000000
C    -1.123000000     3.415000000     2.403000000
C    -1.269000000     3.929000000     1.134000000
H    -2.244000000     3.804000000     0.671000000
C    -0.084000000     4.421000000     0.447000000
O    -0.257000000     4.760000000    -0.836000000
C     0.303000000     3.788000000    -1.780000000
C    -0.614000000     3.530000000    -2.967000000
C    -0.260000000     3.288000000    -4.254000000
H     0.787000000     3.350000000    -4.540000000
C    -1.915000000     3.430000000    -2.599000000
H    -2.143000000     3.564000000    -1.545000000
O     1.571000000     4.316000000    -2.253000000
H     0.316000000     2.847000000    -1.211000000
C     1.132000000     4.557000000     1.101000000
C     2.336000000     5.141000000     0.377000000
H     2.991000000     5.619000000     1.108000000
H     1.918000000     5.832000000    -0.358000000
C     3.028000000     4.031000000    -0.433000000
C     3.998000000     3.134000000     0.167000000
H     4.142000000     3.237000000     1.240000000
C     2.660000000     3.723000000    -1.730000000
C     3.220000000     2.657000000    -2.363000000
H     2.879000000     2.462000000    -3.376000000
C     4.122000000     1.806000000    -1.743000000
O     4.399000000     0.634000000    -2.417000000
C     3.685000000    -0.588000000    -1.957000000
C     3.264000000    -1.388000000    -3.226000000
C     2.972000000    -0.767000000    -4.435000000
H     3.295000000     0.243000000    -4.673000000
C     2.860000000    -2.700000000    -3.003000000
H     2.836000000    -3.064000000    -1.979000000
O     4.544000000    -1.415000000    -1.140000000
H     2.844000000    -0.213000000    -1.355000000
C     4.543000000     1.967000000    -0.452000000
C     5.399000000     0.915000000     0.280000000
H     6.022000000     1.311000000     1.084000000
H     6.043000000     0.435000000    -0.461000000
C     4.626000000    -0.188000000     0.948000000
C     4.286000000    -1.351000000     0.226000000
C     3.693000000    -2.478000000     0.862000000
H     3.301000000    -3.388000000     0.415000000
C     3.311000000    -2.253000000     2.217000000
O     2.486000000    -3.214000000     2.762000000
C     1.135000000    -2.920000000     2.870000000
H     0.897000000    -2.032000000     2.266000000
C     0.276000000    -4.079000000     2.426000000
C    -0.908000000    -4.396000000     3.082000000
H    -1.179000000    -3.773000000     3.931000000
C     0.620000000    -4.866000000     1.312000000
H     1.581000000    -4.720000000     0.826000000
C    -0.202000000    -5.912000000     0.968000000
O     0.178000000    -6.844000000     0.038000000
C    -1.390000000    -6.174000000     1.601000000
H    -2.112000000    -6.903000000     1.241000000
C    -1.777000000    -5.392000000     2.671000000
O    -2.916000000    -5.719000000     3.434000000
C    -3.693000000    -4.729000000     4.024000000
C    -4.547000000    -3.929000000     3.266000000
H    -4.562000000    -3.994000000     2.181000000
C    -3.616000000    -4.546000000     5.421000000
H    -2.935000000    -5.129000000     6.036000000
C    -4.342000000    -3.610000000     6.056000000
H    -4.332000000    -3.414000000     7.125000000
C    -5.136000000    -2.755000000     5.259000000
H    -5.644000000    -1.915000000     5.725000000
C    -5.191000000    -2.850000000     3.891000000
O    -5.903000000    -1.892000000     3.166000000
C    -5.576000000    -0.596000000     2.886000000
C    -6.401000000     0.277000000     2.146000000
H    -7.355000000    -0.094000000     1.781000000
C    -5.881000000     1.457000000     1.721000000
O    -6.592000000     2.325000000     0.848000000
C    -5.920000000     3.174000000     0.011000000
C    -5.504000000     2.851000000    -1.229000000
H    -5.636000000     1.811000000    -1.516000000
C    -5.812000000     4.502000000     0.433000000
H    -6.215000000     4.855000000     1.379000000
C    -5.170000000     5.439000000    -0.413000000
H    -5.155000000     6.456000000    -0.031000000
C    -4.529000000     5.011000000    -1.607000000
H    -3.857000000     5.613000000    -2.213000000
C    -4.883000000     3.742000000    -2.091000000
O    -4.289000000     3.198000000    -3.217000000
C    -2.924000000     3.302000000    -3.566000000
C    -2.531000000     3.036000000    -4.909000000
H    -3.176000000     2.944000000    -5.780000000
C    -1.170000000     2.998000000    -5.238000000
O    -0.820000000     3.008000000    -6.590000000
C     0.329000000     2.364000000    -6.966000000
C     0.580000000     1.021000000    -6.560000000
H    -0.072000000     0.543000000    -5.834000000
C     1.115000000     2.865000000    -8.021000000
H     0.817000000     3.775000000    -8.534000000
C     2.199000000     2.197000000    -8.621000000
H     2.788000000     2.691000000    -9.390000000
C     2.422000000     0.893000000    -8.181000000
H     3.163000000     0.299000000    -8.709000000
C     1.705000000     0.330000000    -7.076000000
O     1.977000000    -0.995000000    -6.729000000
C     2.274000000    -1.511000000    -5.448000000
C     1.865000000    -2.777000000    -5.254000000
H     1.358000000    -3.349000000    -6.026000000
C     2.294000000    -3.395000000    -4.042000000
O     1.765000000    -4.654000000    -3.825000000
C     2.118000000    -5.479000000    -2.753000000
C     3.396000000    -5.881000000    -2.461000000
H     4.265000000    -5.629000000    -3.063000000
C     3.525000000    -6.815000000    -1.365000000
H     4.506000000    -7.238000000    -1.165000000
C     2.429000000    -7.157000000    -0.576000000
H     2.542000000    -7.808000000     0.287000000
C     1.166000000    -6.707000000    -0.879000000
C     0.990000000    -5.915000000    -2.013000000
H     0.012000000    -5.472000000    -2.178000000
C    -2.188000000    -2.091000000    -0.383000000
H    -2.308000000    -3.171000000    -0.403000000
C    -0.904000000    -1.526000000    -0.272000000
H    -0.089000000    -2.229000000    -0.126000000
C    -0.700000000    -0.138000000    -0.168000000
C     0.621000000     0.477000000     0.179000000
H     1.046000000     0.911000000    -0.729000000
H     0.476000000     1.265000000     0.922000000
H     1.286000000    -0.301000000     0.560000000
C    -1.831000000     0.669000000    -0.253000000
H    -1.805000000     1.752000000    -0.168000000
C    -3.066000000     0.079000000    -0.477000000
H    -3.960000000     0.696000000    -0.513000000
C    -3.289000000    -1.274000000    -0.607000000
C    -4.776000000    -1.754000000    -0.811000000
O    -5.671000000    -1.045000000    -1.147000000
O    -5.052000000    -2.944000000    -0.793000000
O   -10.612000000    -3.293000000     0.377000000
H   -10.502000000    -4.013000000    -0.244000000
H    -9.722000000    -3.077000000     0.654000000
O    -4.375000000    -4.082000000    -3.061000000
H    -4.952000000    -3.662000000    -3.699000000
H    -4.708000000    -3.795000000    -2.211000000
O    -8.275000000    -1.278000000    -1.526000000
H    -8.323000000    -2.049000000    -0.960000000
H    -7.347000000    -1.041000000    -1.529000000
O    -5.086000000    -7.260000000    -4.561000000
H    -4.231000000    -7.234000000    -4.991000000
H    -4.923000000    -6.919000000    -3.682000000
O    -6.664000000    -4.142000000    -5.662000000
H    -5.910000000    -3.903000000    -6.201000000
H    -6.694000000    -3.471000000    -4.981000000
O    -6.019000000     1.060000000    -4.261000000
H    -5.869000000     1.762000000    -3.628000000
H    -6.076000000     1.507000000    -5.106000000
O    -7.349000000    -6.235000000     0.566000000
H    -7.786000000    -6.741000000    -0.118000000
H    -7.365000000    -6.806000000     1.334000000
O    -2.300000000    -4.605000000    -4.456000000
H    -1.854000000    -3.759000000    -4.411000000
H    -3.122000000    -4.468000000    -3.985000000
O    -7.694000000    -3.565000000    -0.132000000
H    -6.785000000    -3.378000000    -0.366000000
H    -7.697000000    -4.496000000     0.092000000
O    -9.485000000    -1.653000000     2.736000000
H    -9.525000000    -1.016000000     3.450000000
H   -10.178000000    -1.382000000     2.134000000
O   -10.473000000     0.153000000    -1.269000000
H   -11.112000000    -0.212000000    -1.881000000
H    -9.661000000    -0.315000000    -1.463000000
O    -3.585000000    -0.644000000    -3.968000000
H    -4.488000000    -0.361000000    -4.111000000
H    -3.512000000    -0.740000000    -3.019000000
O    -3.150000000    -7.321000000    -1.118000000
H    -3.455000000    -6.506000000    -0.721000000
H    -2.934000000    -7.083000000    -2.020000000
O    -2.356000000    -7.184000000    -3.654000000
H    -2.248000000    -6.309000000    -4.026000000
H    -1.566000000    -7.656000000    -3.920000000
O    -6.231000000    -2.005000000    -3.815000000
H    -6.345000000    -1.625000000    -2.944000000
H    -5.953000000    -1.270000000    -4.362000000
O    -8.639000000     0.433000000    -3.936000000
H    -8.735000000    -0.182000000    -3.208000000
H    -7.725000000     0.714000000    -3.893000000
O    -8.895000000     2.467000000     2.650000000
H    -8.290000000     2.277000000     1.933000000
H    -8.329000000     2.624000000     3.406000000
O    -1.382000000    -2.189000000    -4.419000000
H    -2.166000000    -1.647000000    -4.510000000
H    -0.971000000    -1.882000000    -3.610000000
O    -4.658000000    -5.591000000     0.176000000
H    -5.582000000    -5.828000000     0.250000000
H    -4.660000000    -4.636000000     0.114000000
