218
-1461.34580
C    -4.144000000     0.597000000     2.809000000
H    -3.932000000     1.608000000     2.473000000
C    -3.318000000    -0.165000000     3.593000000
C    -3.635000000    -1.515000000     3.812000000
H    -2.899000000    -2.190000000     4.242000000
C    -1.936000000     0.331000000     3.930000000
O    -1.944000000     1.708000000     4.262000000
H    -1.236000000     0.227000000     3.088000000
O    -1.370000000    -0.374000000     5.071000000
C    -0.030000000    -0.723000000     4.851000000
C     0.332000000    -1.954000000     4.326000000
H    -0.438000000    -2.697000000     4.137000000
C     1.618000000    -2.251000000     3.838000000
O     1.898000000    -3.431000000     3.178000000
C     2.620000000    -1.217000000     3.987000000
C     4.086000000    -1.426000000     3.510000000
H     4.677000000    -0.628000000     3.965000000
C     4.245000000    -1.254000000     1.982000000
C     4.748000000    -0.018000000     1.458000000
H     5.048000000     0.782000000     2.131000000
H     4.383000000    -2.449000000     3.749000000
C     2.297000000    -0.039000000     4.584000000
H     3.126000000     0.656000000     4.695000000
C     0.999000000     0.235000000     4.969000000
C     0.657000000     1.647000000     5.515000000
H     1.514000000     2.134000000     5.985000000
H    -0.200000000     1.583000000     6.189000000
C     0.294000000     2.504000000     4.244000000
C     1.323000000     3.241000000     3.608000000
H     2.383000000     3.237000000     3.850000000
C    -1.006000000     2.560000000     3.791000000
C    -1.313000000     3.287000000     2.638000000
H    -2.334000000     3.372000000     2.275000000
C    -0.305000000     4.028000000     2.015000000
O    -0.673000000     4.724000000     0.910000000
C    -0.291000000     4.145000000    -0.374000000
C    -1.410000000     4.367000000    -1.378000000
C    -1.139000000     4.757000000    -2.722000000
H    -0.110000000     4.820000000    -3.067000000
C    -2.768000000     4.225000000    -1.066000000
H    -2.960000000     3.975000000    -0.026000000
O     0.906000000     4.878000000    -0.817000000
H     0.002000000     3.088000000    -0.299000000
C     1.045000000     3.980000000     2.423000000
C     2.082000000     4.816000000     1.708000000
H     2.830000000     5.031000000     2.474000000
H     1.602000000     5.751000000     1.411000000
C     2.667000000     4.095000000     0.434000000
C     3.937000000     3.405000000     0.483000000
H     4.469000000     3.332000000     1.428000000
C     2.009000000     4.141000000    -0.770000000
C     2.491000000     3.470000000    -1.868000000
H     1.968000000     3.548000000    -2.818000000
C     3.502000000     2.575000000    -1.761000000
O     3.625000000     1.693000000    -2.815000000
C     3.111000000     0.334000000    -2.544000000
C     2.496000000    -0.153000000    -3.886000000
C     1.696000000     0.663000000    -4.671000000
H     1.638000000     1.733000000    -4.491000000
C     2.528000000    -1.547000000    -4.165000000
H     3.092000000    -2.234000000    -3.540000000
O     4.220000000    -0.493000000    -2.137000000
H     2.347000000     0.299000000    -1.754000000
C     4.241000000     2.492000000    -0.546000000
C     5.406000000     1.533000000    -0.440000000
H     6.104000000     1.812000000     0.351000000
H     5.910000000     1.338000000    -1.389000000
C     4.912000000     0.189000000     0.040000000
C     4.431000000    -0.779000000    -0.786000000
C     3.994000000    -2.012000000    -0.372000000
H     3.561000000    -2.705000000    -1.089000000
C     3.922000000    -2.295000000     1.028000000
O     3.383000000    -3.484000000     1.405000000
C     2.013000000    -3.419000000     1.747000000
H     1.662000000    -2.419000000     1.455000000
C     1.155000000    -4.458000000     1.000000000
C    -0.137000000    -4.745000000     1.507000000
H    -0.499000000    -4.235000000     2.397000000
C     1.536000000    -4.938000000    -0.219000000
H     2.518000000    -4.645000000    -0.581000000
C     0.872000000    -5.926000000    -0.899000000
O     1.398000000    -6.681000000    -1.918000000
C    -0.426000000    -6.254000000    -0.417000000
H    -1.027000000    -7.000000000    -0.931000000
C    -0.942000000    -5.636000000     0.743000000
O    -2.280000000    -5.937000000     1.047000000
C    -2.888000000    -5.734000000     2.292000000
C    -3.798000000    -4.697000000     2.457000000
H    -4.092000000    -4.101000000     1.597000000
C    -2.532000000    -6.456000000     3.431000000
H    -1.788000000    -7.237000000     3.298000000
C    -3.210000000    -6.250000000     4.626000000
H    -2.997000000    -6.954000000     5.426000000
C    -4.189000000    -5.236000000     4.785000000
H    -4.740000000    -5.109000000     5.714000000
C    -4.367000000    -4.375000000     3.706000000
O    -5.257000000    -3.291000000     3.757000000
C    -4.905000000    -1.987000000     3.507000000
C    -5.819000000    -1.208000000     2.815000000
H    -6.802000000    -1.552000000     2.504000000
C    -5.400000000     0.037000000     2.434000000
O    -6.226000000     0.720000000     1.566000000
C    -6.136000000     2.042000000     1.238000000
C    -5.756000000     2.452000000    -0.069000000
H    -5.328000000     1.736000000    -0.767000000
C    -6.486000000     3.009000000     2.170000000
H    -6.800000000     2.755000000     3.179000000
C    -6.268000000     4.362000000     1.890000000
H    -6.263000000     5.092000000     2.695000000
C    -5.812000000     4.773000000     0.649000000
H    -5.616000000     5.831000000     0.493000000
C    -5.499000000     3.819000000    -0.334000000
O    -5.016000000     4.149000000    -1.613000000
C    -3.745000000     4.298000000    -1.997000000
C    -3.499000000     4.645000000    -3.285000000
H    -4.318000000     4.597000000    -3.999000000
C    -2.173000000     4.817000000    -3.635000000
O    -1.942000000     5.132000000    -4.959000000
C    -0.937000000     4.392000000    -5.604000000
C    -0.948000000     3.021000000    -5.611000000
H    -1.686000000     2.429000000    -5.076000000
C     0.040000000     5.039000000    -6.374000000
H     0.205000000     6.112000000    -6.328000000
C     0.969000000     4.366000000    -7.147000000
H     1.643000000     4.939000000    -7.777000000
C     1.002000000     2.942000000    -7.015000000
H     1.699000000     2.350000000    -7.602000000
C     0.093000000     2.266000000    -6.233000000
O     0.130000000     0.899000000    -6.441000000
C     1.029000000     0.115000000    -5.748000000
C     1.002000000    -1.200000000    -5.992000000
H     0.262000000    -1.631000000    -6.662000000
C     1.753000000    -2.045000000    -5.207000000
O     1.546000000    -3.414000000    -5.487000000
C     2.107000000    -4.407000000    -4.726000000
C     3.394000000    -4.850000000    -5.160000000
H     3.842000000    -4.500000000    -6.087000000
C     3.958000000    -5.882000000    -4.391000000
H     4.884000000    -6.320000000    -4.753000000
C     3.253000000    -6.426000000    -3.335000000
H     3.676000000    -7.247000000    -2.762000000
C     2.010000000    -6.023000000    -2.980000000
C     1.449000000    -4.971000000    -3.663000000
H     0.427000000    -4.625000000    -3.526000000
C    -0.743000000    -2.169000000    -1.351000000
H    -0.485000000    -2.961000000    -2.050000000
C     0.295000000    -1.343000000    -0.813000000
H     1.342000000    -1.599000000    -0.952000000
C    -0.020000000    -0.216000000     0.066000000
C     1.051000000     0.576000000     0.736000000
H     1.954000000     0.034000000     1.026000000
H     1.249000000     1.368000000     0.011000000
H     0.654000000     1.014000000     1.653000000
C    -1.369000000     0.086000000     0.264000000
H    -1.697000000     0.773000000     1.039000000
C    -2.354000000    -0.715000000    -0.251000000
H    -3.391000000    -0.469000000    -0.040000000
C    -2.056000000    -1.878000000    -1.011000000
C    -3.268000000    -2.652000000    -1.534000000
O    -4.422000000    -2.525000000    -1.122000000
O    -3.149000000    -3.082000000    -2.623000000
O    -9.129000000    -2.267000000    -1.799000000
H    -8.967000000    -3.191000000    -1.609000000
H    -8.261000000    -1.864000000    -1.786000000
O    -7.952000000    -5.179000000    -2.275000000
H    -7.083000000    -4.779000000    -2.276000000
H    -7.793000000    -6.098000000    -2.490000000
O    -5.938000000    -1.268000000    -4.483000000
H    -5.517000000    -1.355000000    -3.628000000
H    -5.387000000    -0.647000000    -4.960000000
O    -3.981000000     0.068000000    -6.109000000
H    -4.230000000     0.425000000    -6.962000000
H    -3.036000000    -0.067000000    -6.173000000
O    -7.426000000     1.591000000    -2.919000000
H    -6.932000000     1.876000000    -2.150000000
H    -6.761000000     1.459000000    -3.595000000
O    -7.000000000    -7.118000000     0.288000000
H    -7.513000000    -6.759000000    -0.436000000
H    -6.694000000    -6.350000000     0.770000000
O    -2.343000000    -5.713000000    -2.904000000
H    -2.627000000    -4.849000000    -3.205000000
H    -2.690000000    -5.782000000    -2.015000000
O    -5.952000000    -4.488000000     0.014000000
H    -5.409000000    -3.941000000    -0.553000000
H    -6.698000000    -3.932000000     0.240000000
O    -6.826000000    -1.475000000    -0.905000000
H    -6.764000000    -0.930000000    -0.120000000
H    -5.922000000    -1.731000000    -1.091000000
O    -1.033000000    -4.648000000    -7.001000000
H    -1.864000000    -4.581000000    -7.472000000
H    -1.192000000    -4.196000000    -6.172000000
O    -1.728000000    -2.481000000    -4.747000000
H    -1.431000000    -1.586000000    -4.581000000
H    -2.062000000    -2.783000000    -3.903000000
O    -5.646000000     1.725000000    -4.813000000
H    -5.006000000     1.190000000    -5.282000000
H    -5.840000000     2.446000000    -5.413000000
O    -7.280000000    -3.333000000    -5.524000000
H    -6.773000000    -2.720000000    -4.992000000
H    -6.690000000    -4.074000000    -5.663000000
O    -6.120000000    -5.935000000    -5.273000000
H    -5.978000000    -6.854000000    -5.045000000
H    -5.882000000    -5.452000000    -4.482000000
O    -5.361000000    -4.724000000    -3.053000000
H    -4.619000000    -4.123000000    -3.107000000
H    -5.115000000    -5.347000000    -2.369000000
O    -8.433000000    -0.520000000    -4.703000000
H    -7.525000000    -0.817000000    -4.645000000
H    -8.544000000     0.059000000    -3.949000000
O    -1.014000000    -7.705000000    -4.179000000
H    -1.614000000    -8.423000000    -3.978000000
H    -1.321000000    -6.977000000    -3.638000000
O    -1.949000000     0.421000000    -3.416000000
H    -2.886000000     0.552000000    -3.274000000
H    -1.587000000     0.308000000    -2.537000000
O    -4.404000000    -6.202000000    -1.051000000
H    -4.050000000    -6.803000000    -0.395000000
H    -5.107000000    -5.738000000    -0.596000000
