218
-1465.72066
C    -4.012000000    -0.028000000     2.717000000
H    -3.789000000     1.032000000     2.632000000
C    -3.199000000    -0.917000000     3.342000000
C    -3.561000000    -2.282000000     3.310000000
H    -2.879000000    -3.059000000     3.647000000
C    -1.830000000    -0.529000000     3.867000000
O    -1.895000000     0.722000000     4.544000000
H    -1.159000000    -0.425000000     3.002000000
O    -1.191000000    -1.461000000     4.746000000
C     0.182000000    -1.642000000     4.512000000
C     0.620000000    -2.808000000     3.835000000
H    -0.120000000    -3.579000000     3.636000000
C     1.942000000    -3.118000000     3.476000000
O     2.123000000    -4.175000000     2.620000000
C     2.841000000    -2.069000000     3.624000000
C     4.293000000    -2.117000000     3.040000000
H     5.007000000    -1.503000000     3.593000000
C     4.458000000    -1.586000000     1.608000000
C     4.867000000    -0.282000000     1.428000000
H     5.224000000     0.334000000     2.249000000
H     4.643000000    -3.151000000     3.065000000
C     2.479000000    -0.937000000     4.413000000
H     3.233000000    -0.169000000     4.571000000
C     1.208000000    -0.679000000     4.851000000
C     0.898000000     0.652000000     5.496000000
H     1.885000000     1.020000000     5.786000000
H     0.363000000     0.457000000     6.428000000
C     0.274000000     1.649000000     4.578000000
C     1.172000000     2.490000000     3.865000000
H     2.245000000     2.382000000     3.998000000
C    -1.074000000     1.780000000     4.224000000
C    -1.497000000     2.727000000     3.313000000
H    -2.489000000     2.649000000     2.875000000
C    -0.543000000     3.563000000     2.729000000
O    -0.964000000     4.473000000     1.744000000
C    -0.803000000     4.111000000     0.359000000
C    -2.003000000     4.520000000    -0.510000000
C    -1.836000000     4.618000000    -1.923000000
H    -0.903000000     4.611000000    -2.480000000
C    -3.230000000     4.679000000     0.102000000
H    -3.345000000     4.617000000     1.181000000
O     0.425000000     4.745000000    -0.090000000
H    -0.812000000     3.018000000     0.238000000
C     0.793000000     3.512000000     3.024000000
C     1.884000000     4.435000000     2.448000000
H     2.597000000     4.603000000     3.258000000
H     1.622000000     5.478000000     2.259000000
C     2.352000000     3.821000000     1.203000000
C     3.654000000     3.247000000     1.158000000
H     4.192000000     3.151000000     2.098000000
C     1.641000000     4.034000000     0.021000000
C     2.117000000     3.503000000    -1.160000000
H     1.478000000     3.563000000    -2.037000000
C     3.334000000     2.812000000    -1.114000000
O     3.616000000     2.218000000    -2.334000000
C     3.401000000     0.827000000    -2.496000000
C     2.728000000     0.644000000    -3.814000000
C     1.688000000     1.438000000    -4.331000000
H     1.401000000     2.280000000    -3.705000000
C     3.072000000    -0.497000000    -4.542000000
H     3.856000000    -1.166000000    -4.195000000
O     4.445000000    -0.044000000    -2.138000000
H     2.644000000     0.543000000    -1.750000000
C     4.104000000     2.637000000    -0.012000000
C     5.321000000     1.754000000    -0.076000000
H     6.058000000     2.020000000     0.684000000
H     5.872000000     1.882000000    -1.010000000
C     4.927000000     0.258000000     0.145000000
C     4.579000000    -0.546000000    -0.903000000
C     4.153000000    -1.837000000    -0.796000000
H     3.992000000    -2.415000000    -1.702000000
C     4.039000000    -2.379000000     0.475000000
O     3.477000000    -3.633000000     0.753000000
C     2.115000000    -3.747000000     1.219000000
H     1.667000000    -2.750000000     1.096000000
C     1.309000000    -4.532000000     0.219000000
C     0.158000000    -5.193000000     0.586000000
H    -0.158000000    -5.087000000     1.620000000
C     1.671000000    -4.638000000    -1.159000000
H     2.532000000    -4.077000000    -1.512000000
C     0.772000000    -5.159000000    -2.102000000
O     0.931000000    -5.231000000    -3.451000000
C    -0.432000000    -5.686000000    -1.655000000
H    -1.148000000    -5.997000000    -2.411000000
C    -0.720000000    -5.792000000    -0.331000000
O    -1.935000000    -6.422000000     0.041000000
C    -2.535000000    -6.280000000     1.298000000
C    -3.583000000    -5.379000000     1.288000000
H    -3.792000000    -4.822000000     0.379000000
C    -2.112000000    -6.910000000     2.454000000
H    -1.219000000    -7.529000000     2.469000000
C    -2.734000000    -6.546000000     3.655000000
H    -2.298000000    -6.802000000     4.617000000
C    -3.797000000    -5.645000000     3.717000000
H    -4.148000000    -5.228000000     4.658000000
C    -4.217000000    -5.114000000     2.533000000
O    -5.122000000    -4.052000000     2.677000000
C    -4.787000000    -2.710000000     2.780000000
C    -5.592000000    -1.773000000     2.091000000
H    -6.437000000    -2.000000000     1.446000000
C    -5.162000000    -0.447000000     1.990000000
O    -5.812000000     0.435000000     1.183000000
C    -6.040000000     1.745000000     1.487000000
C    -5.830000000     2.625000000     0.484000000
H    -5.433000000     2.332000000    -0.485000000
C    -6.361000000     2.174000000     2.836000000
H    -6.357000000     1.424000000     3.622000000
C    -6.432000000     3.575000000     3.087000000
H    -6.678000000     3.962000000     4.072000000
C    -6.287000000     4.474000000     2.037000000
H    -6.361000000     5.544000000     2.210000000
C    -5.912000000     4.015000000     0.759000000
O    -5.648000000     4.949000000    -0.170000000
C    -4.345000000     4.992000000    -0.731000000
C    -4.208000000     5.131000000    -2.106000000
H    -5.083000000     5.320000000    -2.722000000
C    -2.948000000     4.951000000    -2.703000000
O    -2.785000000     5.114000000    -4.005000000
C    -1.668000000     4.725000000    -4.715000000
C    -1.387000000     3.465000000    -5.077000000
H    -1.957000000     2.745000000    -4.496000000
C    -0.868000000     5.749000000    -5.226000000
H    -1.096000000     6.796000000    -5.041000000
C     0.191000000     5.408000000    -6.072000000
H     0.764000000     6.157000000    -6.613000000
C     0.500000000     4.097000000    -6.398000000
H     1.406000000     3.893000000    -6.963000000
C    -0.291000000     3.113000000    -5.850000000
O    -0.027000000     1.787000000    -6.062000000
C     1.067000000     1.063000000    -5.513000000
C     1.534000000    -0.003000000    -6.236000000
H     1.201000000    -0.134000000    -7.263000000
C     2.507000000    -0.823000000    -5.764000000
O     2.894000000    -1.936000000    -6.442000000
C     2.897000000    -3.103000000    -5.689000000
C     4.127000000    -3.792000000    -5.668000000
H     4.969000000    -3.334000000    -6.180000000
C     4.255000000    -4.895000000    -4.867000000
H     5.184000000    -5.452000000    -4.779000000
C     3.122000000    -5.453000000    -4.211000000
H     3.212000000    -6.295000000    -3.529000000
C     1.972000000    -4.736000000    -4.190000000
C     1.758000000    -3.604000000    -4.951000000
H     0.782000000    -3.124000000    -4.937000000
C    -0.601000000    -1.716000000    -1.710000000
H    -0.447000000    -2.420000000    -2.523000000
C     0.460000000    -1.109000000    -0.992000000
H     1.516000000    -1.263000000    -1.197000000
C     0.258000000    -0.183000000     0.022000000
C     1.427000000     0.296000000     0.848000000
H     1.414000000     1.385000000     0.771000000
H     1.329000000     0.166000000     1.928000000
H     2.419000000    -0.017000000     0.515000000
C    -1.041000000     0.173000000     0.345000000
H    -1.269000000     0.922000000     1.099000000
C    -2.102000000    -0.357000000    -0.391000000
H    -3.103000000    -0.048000000    -0.099000000
C    -1.905000000    -1.291000000    -1.409000000
C    -3.076000000    -1.880000000    -2.063000000
O    -4.060000000    -1.174000000    -2.228000000
O    -3.092000000    -2.964000000    -2.640000000
O    -6.686000000     1.428000000    -4.411000000
H    -6.485000000     1.139000000    -5.301000000
H    -5.838000000     1.671000000    -4.040000000
O    -3.715000000    -6.802000000    -2.934000000
H    -3.039000000    -6.360000000    -3.448000000
H    -3.958000000    -6.167000000    -2.261000000
O    -8.774000000    -0.482000000    -0.415000000
H    -8.601000000     0.455000000    -0.322000000
H    -8.002000000    -0.824000000    -0.866000000
O    -7.873000000    -1.297000000    -3.579000000
H    -8.737000000    -1.693000000    -3.699000000
H    -7.939000000    -0.444000000    -4.009000000
O    -1.903000000    -0.414000000    -7.012000000
H    -2.665000000     0.031000000    -6.639000000
H    -1.151000000     0.038000000    -6.630000000
O    -8.511000000     1.877000000    -1.403000000
H    -9.152000000     1.260000000    -1.755000000
H    -8.010000000     2.163000000    -2.167000000
O    -4.080000000     1.209000000    -6.550000000
H    -3.734000000     1.761000000    -7.251000000
H    -5.017000000     1.144000000    -6.736000000
O    -5.002000000    -4.598000000    -1.708000000
H    -5.687000000    -3.968000000    -1.484000000
H    -4.280000000    -4.060000000    -2.034000000
O    -1.066000000    -6.878000000    -4.823000000
H    -1.674000000    -6.190000000    -5.095000000
H    -0.378000000    -6.413000000    -4.346000000
O    -5.563000000    -3.015000000    -7.219000000
H    -5.300000000    -2.572000000    -6.412000000
H    -5.943000000    -2.322000000    -7.759000000
O    -5.004000000    -1.907000000    -4.604000000
H    -4.527000000    -2.109000000    -3.800000000
H    -5.802000000    -1.470000000    -4.306000000
O    -1.138000000    -3.282000000    -6.832000000
H    -1.139000000    -2.325000000    -6.854000000
H    -1.944000000    -3.532000000    -7.285000000
O    -4.014000000    -7.527000000    -5.988000000
H    -4.772000000    -6.980000000    -5.780000000
H    -3.553000000    -7.625000000    -5.155000000
O    -9.029000000    -3.670000000    -0.410000000
H    -9.116000000    -2.925000000     0.186000000
H    -8.312000000    -3.425000000    -0.996000000
O    -5.704000000    -5.295000000    -5.125000000
H    -5.285000000    -5.088000000    -4.289000000
H    -5.767000000    -4.453000000    -5.576000000
O    -6.505000000    -1.845000000    -1.440000000
H    -5.562000000    -1.705000000    -1.527000000
H    -6.874000000    -1.505000000    -2.255000000
O    -2.324000000    -4.598000000    -4.582000000
H    -2.487000000    -4.056000000    -3.810000000
H    -2.006000000    -3.983000000    -5.244000000
O    -4.150000000     1.211000000    -3.697000000
H    -4.204000000     0.361000000    -3.260000000
H    -3.681000000     1.031000000    -4.512000000
O    -6.432000000    -6.870000000    -0.661000000
H    -5.839000000    -6.143000000    -0.855000000
H    -7.062000000    -6.863000000    -1.381000000
