218
-1455.45815
C    -2.050000000    -2.097000000    -4.780000000
H    -2.220000000    -1.041000000    -4.972000000
C    -2.625000000    -2.645000000    -3.616000000
C    -2.331000000    -4.001000000    -3.363000000
H    -2.708000000    -4.476000000    -2.460000000
C    -3.357000000    -1.714000000    -2.636000000
O    -3.981000000    -0.556000000    -3.237000000
H    -2.581000000    -1.430000000    -1.910000000
O    -4.295000000    -2.520000000    -1.941000000
C    -4.379000000    -2.128000000    -0.624000000
C    -3.634000000    -2.856000000     0.322000000
H    -3.272000000    -3.833000000     0.010000000
C    -3.524000000    -2.466000000     1.617000000
O    -2.736000000    -3.233000000     2.415000000
C    -4.247000000    -1.374000000     2.109000000
C    -4.194000000    -0.925000000     3.598000000
H    -4.961000000    -0.222000000     3.931000000
C    -2.850000000    -0.216000000     3.922000000
C    -2.841000000     1.133000000     3.815000000
H    -3.781000000     1.631000000     3.589000000
H    -4.343000000    -1.724000000     4.328000000
C    -4.998000000    -0.666000000     1.212000000
H    -5.507000000     0.227000000     1.565000000
C    -5.034000000    -0.970000000    -0.144000000
C    -5.735000000     0.068000000    -1.029000000
H    -6.465000000     0.622000000    -0.434000000
H    -6.227000000    -0.390000000    -1.890000000
C    -4.652000000     1.002000000    -1.537000000
C    -4.363000000     2.227000000    -0.944000000
H    -4.949000000     2.582000000    -0.100000000
C    -3.853000000     0.667000000    -2.657000000
C    -2.905000000     1.525000000    -3.137000000
H    -2.252000000     1.138000000    -3.915000000
C    -2.589000000     2.688000000    -2.456000000
O    -1.446000000     3.329000000    -2.905000000
C    -0.282000000     3.341000000    -2.058000000
C     0.938000000     3.306000000    -2.917000000
C     2.147000000     3.597000000    -2.354000000
H     2.165000000     4.131000000    -1.408000000
C     0.914000000     2.524000000    -4.058000000
H    -0.039000000     2.270000000    -4.516000000
O    -0.258000000     4.543000000    -1.434000000
H    -0.272000000     2.488000000    -1.364000000
C    -3.393000000     3.103000000    -1.403000000
C    -3.126000000     4.421000000    -0.712000000
H    -4.046000000     4.904000000    -0.376000000
H    -2.824000000     5.180000000    -1.436000000
C    -1.998000000     4.404000000     0.293000000
C    -2.303000000     4.005000000     1.579000000
H    -3.338000000     3.977000000     1.909000000
C    -0.663000000     4.488000000    -0.082000000
C     0.329000000     4.321000000     0.881000000
H     1.391000000     4.273000000     0.652000000
C     0.013000000     4.004000000     2.201000000
O     0.971000000     3.784000000     3.111000000
C     1.359000000     2.410000000     3.297000000
C     2.864000000     2.355000000     3.364000000
C     3.675000000     3.327000000     2.796000000
H     3.237000000     4.195000000     2.310000000
C     3.495000000     1.243000000     4.031000000
H     2.939000000     0.419000000     4.471000000
O     0.695000000     1.916000000     4.496000000
H     1.093000000     1.706000000     2.495000000
C    -1.281000000     3.804000000     2.566000000
C    -1.682000000     3.401000000     3.971000000
H    -2.598000000     3.966000000     4.154000000
H    -0.929000000     3.717000000     4.696000000
C    -1.720000000     1.878000000     4.136000000
C    -0.535000000     1.246000000     4.388000000
C    -0.508000000    -0.127000000     4.575000000
H     0.437000000    -0.634000000     4.751000000
C    -1.674000000    -0.863000000     4.370000000
O    -1.553000000    -2.231000000     4.171000000
C    -1.397000000    -2.689000000     2.803000000
H    -1.028000000    -1.810000000     2.254000000
C    -0.263000000    -3.714000000     2.672000000
C    -0.252000000    -4.682000000     1.629000000
H    -1.069000000    -4.725000000     0.913000000
C     0.927000000    -3.512000000     3.453000000
H     0.899000000    -2.781000000     4.257000000
C     2.030000000    -4.302000000     3.173000000
O     3.285000000    -4.099000000     3.781000000
C     2.013000000    -5.198000000     2.146000000
H     2.871000000    -5.797000000     1.853000000
C     0.857000000    -5.460000000     1.446000000
O     0.860000000    -6.347000000     0.398000000
C    -0.218000000    -6.605000000    -0.424000000
C    -0.186000000    -6.126000000    -1.755000000
H     0.662000000    -5.535000000    -2.093000000
C    -1.152000000    -7.411000000     0.136000000
H    -1.030000000    -7.805000000     1.142000000
C    -2.257000000    -7.716000000    -0.654000000
H    -3.123000000    -8.205000000    -0.214000000
C    -2.273000000    -7.347000000    -1.976000000
H    -3.107000000    -7.570000000    -2.636000000
C    -1.244000000    -6.547000000    -2.565000000
O    -1.344000000    -6.075000000    -3.888000000
C    -1.600000000    -4.770000000    -4.217000000
C    -1.010000000    -4.170000000    -5.391000000
H    -0.435000000    -4.855000000    -6.008000000
C    -1.279000000    -2.822000000    -5.709000000
O    -0.774000000    -2.266000000    -6.887000000
C    -0.444000000    -0.962000000    -7.083000000
C     0.598000000    -0.482000000    -6.396000000
H     1.147000000    -0.971000000    -5.595000000
C    -1.191000000    -0.094000000    -7.925000000
H    -2.130000000    -0.420000000    -8.366000000
C    -0.643000000     1.169000000    -8.183000000
H    -1.077000000     1.939000000    -8.816000000
C     0.530000000     1.636000000    -7.548000000
H     0.862000000     2.644000000    -7.780000000
C     1.076000000     0.844000000    -6.542000000
O     2.120000000     1.331000000    -5.855000000
C     2.099000000     2.141000000    -4.734000000
C     3.303000000     2.604000000    -4.243000000
H     4.197000000     2.389000000    -4.823000000
C     3.378000000     3.261000000    -3.001000000
O     4.648000000     3.519000000    -2.446000000
C     4.989000000     4.291000000    -1.355000000
C     5.058000000     3.853000000     0.013000000
H     4.848000000     2.789000000     0.076000000
C     5.323000000     5.627000000    -1.615000000
H     5.336000000     5.952000000    -2.652000000
C     5.599000000     6.489000000    -0.594000000
H     5.766000000     7.555000000    -0.726000000
C     5.666000000     6.016000000     0.679000000
H     5.983000000     6.619000000     1.525000000
C     5.366000000     4.719000000     1.000000000
O     5.792000000     4.248000000     2.230000000
C     5.074000000     3.257000000     2.841000000
C     5.677000000     2.228000000     3.600000000
H     6.756000000     2.212000000     3.732000000
C     4.886000000     1.196000000     4.105000000
O     5.570000000     0.152000000     4.622000000
C     4.896000000    -1.003000000     5.011000000
C     4.853000000    -1.379000000     6.317000000
H     5.314000000    -0.791000000     7.107000000
C     4.268000000    -2.590000000     6.817000000
H     4.297000000    -2.892000000     7.861000000
C     3.639000000    -3.418000000     5.913000000
H     3.270000000    -4.392000000     6.222000000
C     3.708000000    -3.049000000     4.565000000
C     4.287000000    -1.858000000     4.078000000
H     4.152000000    -1.566000000     3.040000000
C     1.141000000    -2.362000000    -0.620000000
H     1.104000000    -3.435000000    -0.788000000
C     0.035000000    -1.615000000    -0.361000000
H    -0.943000000    -2.090000000    -0.352000000
C     0.121000000    -0.307000000     0.046000000
C    -1.055000000     0.603000000     0.219000000
H    -0.793000000     1.586000000     0.616000000
H    -1.558000000     0.737000000    -0.741000000
H    -1.830000000     0.181000000     0.863000000
C     1.401000000     0.320000000     0.119000000
H     1.561000000     1.371000000     0.348000000
C     2.506000000    -0.408000000    -0.257000000
H     3.450000000     0.103000000    -0.431000000
C     2.443000000    -1.791000000    -0.532000000
C     3.690000000    -2.587000000    -0.721000000
O     4.765000000    -2.216000000    -0.268000000
O     3.706000000    -3.595000000    -1.369000000
O     8.788000000    -2.895000000    -4.574000000
H     8.082000000    -2.621000000    -5.159000000
H     8.401000000    -2.861000000    -3.699000000
O     7.794000000    -5.974000000    -4.191000000
H     7.863000000    -5.176000000    -3.666000000
H     7.231000000    -6.552000000    -3.675000000
O     7.749000000     1.195000000     0.783000000
H     7.873000000     0.339000000     1.194000000
H     8.020000000     1.066000000    -0.126000000
O     5.161000000    -6.148000000     3.768000000
H     4.541000000    -5.429000000     3.893000000
H     4.964000000    -6.759000000     4.478000000
O     8.050000000    -2.381000000     3.938000000
H     8.074000000    -3.337000000     3.899000000
H     7.694000000    -2.116000000     3.089000000
O     4.448000000    -6.826000000    -4.352000000
H     3.944000000    -6.537000000    -5.113000000
H     3.818000000    -7.308000000    -3.816000000
O     6.058000000    -4.674000000     0.277000000
H     5.643000000    -5.318000000     0.851000000
H     5.341000000    -4.105000000    -0.003000000
O     1.455000000    -3.272000000    -3.415000000
H     0.921000000    -2.736000000    -2.829000000
H     2.345000000    -3.188000000    -3.071000000
O     6.695000000    -7.714000000    -2.291000000
H     5.873000000    -7.265000000    -2.491000000
H     6.657000000    -7.874000000    -1.348000000
O     2.975000000    -2.722000000    -5.593000000
H     3.668000000    -2.823000000    -4.941000000
H     2.172000000    -2.954000000    -5.128000000
O     8.450000000     0.606000000    -1.896000000
H     7.786000000    -0.079000000    -1.974000000
H     8.026000000     1.391000000    -2.241000000
O     6.410000000    -2.072000000    -5.829000000
H     6.020000000    -2.788000000    -5.328000000
H     5.782000000    -1.354000000    -5.750000000
O     8.568000000    -4.112000000     1.163000000
H     7.874000000    -4.682000000     0.833000000
H     9.016000000    -4.638000000     1.825000000
O     2.713000000    -8.398000000    -0.849000000
H     1.991000000    -8.976000000    -0.601000000
H     2.569000000    -7.602000000    -0.337000000
O     5.043000000    -7.545000000     1.618000000
H     5.226000000    -7.077000000     2.433000000
H     4.644000000    -8.369000000     1.899000000
O     7.320000000    -3.663000000    -2.353000000
H     7.132000000    -4.234000000    -1.608000000
H     6.546000000    -3.103000000    -2.427000000
O     4.855000000    -3.782000000    -3.868000000
H     5.096000000    -4.641000000    -4.216000000
H     4.582000000    -3.957000000    -2.967000000
O     7.264000000    -1.703000000     0.371000000
H     6.358000000    -1.953000000     0.190000000
H     7.712000000    -2.531000000     0.545000000
O     6.265000000    -0.940000000    -2.460000000
H     6.225000000    -1.110000000    -1.519000000
H     5.372000000    -1.090000000    -2.769000000
