218
-1447.11267
C    -4.045000000     1.017000000     3.535000000
H    -3.965000000     1.889000000     4.180000000
C    -2.960000000     0.130000000     3.319000000
C    -3.222000000    -1.022000000     2.544000000
H    -2.414000000    -1.731000000     2.379000000
C    -1.548000000     0.460000000     3.818000000
O    -1.537000000     1.770000000     4.384000000
H    -0.987000000     0.453000000     2.872000000
O    -1.078000000    -0.577000000     4.785000000
C     0.153000000    -1.018000000     4.375000000
C     0.196000000    -2.241000000     3.784000000
H    -0.647000000    -2.898000000     3.586000000
C     1.457000000    -2.680000000     3.301000000
O     1.459000000    -3.829000000     2.573000000
C     2.610000000    -1.889000000     3.357000000
C     3.936000000    -2.350000000     2.888000000
H     4.675000000    -1.875000000     3.537000000
C     4.206000000    -1.994000000     1.473000000
C     4.867000000    -0.796000000     1.195000000
H     5.189000000    -0.207000000     2.049000000
H     4.029000000    -3.435000000     2.959000000
C     2.517000000    -0.615000000     3.933000000
H     3.399000000     0.014000000     4.012000000
C     1.317000000    -0.234000000     4.573000000
C     1.193000000     1.125000000     5.254000000
H     2.090000000     1.419000000     5.802000000
H     0.359000000     1.042000000     5.954000000
C     0.866000000     2.188000000     4.335000000
C     1.859000000     2.858000000     3.725000000
H     2.909000000     2.600000000     3.832000000
C    -0.455000000     2.581000000     4.143000000
C    -0.737000000     3.595000000     3.142000000
H    -1.746000000     3.832000000     2.812000000
C     0.325000000     4.259000000     2.572000000
O    -0.010000000     4.913000000     1.363000000
C     0.128000000     4.238000000     0.140000000
C    -1.109000000     4.396000000    -0.704000000
C    -1.142000000     3.929000000    -2.064000000
H    -0.216000000     3.631000000    -2.549000000
C    -2.353000000     4.715000000    -0.060000000
H    -2.422000000     4.905000000     1.008000000
O     1.319000000     4.778000000    -0.504000000
H     0.276000000     3.171000000     0.361000000
C     1.613000000     3.837000000     2.746000000
C     2.764000000     4.630000000     2.040000000
H     3.661000000     4.684000000     2.661000000
H     2.497000000     5.680000000     1.906000000
C     3.117000000     3.830000000     0.781000000
C     4.038000000     2.831000000     0.822000000
H     4.386000000     2.483000000     1.791000000
C     2.490000000     4.042000000    -0.447000000
C     2.796000000     3.328000000    -1.621000000
H     2.229000000     3.472000000    -2.537000000
C     3.710000000     2.315000000    -1.544000000
O     3.935000000     1.547000000    -2.663000000
C     3.515000000     0.177000000    -2.677000000
C     2.743000000    -0.180000000    -3.962000000
C     2.128000000     0.782000000    -4.842000000
H     2.234000000     1.844000000    -4.636000000
C     2.566000000    -1.528000000    -4.263000000
H     2.972000000    -2.363000000    -3.697000000
O     4.687000000    -0.719000000    -2.442000000
H     2.826000000     0.025000000    -1.834000000
C     4.398000000     2.091000000    -0.341000000
C     5.493000000     1.062000000    -0.270000000
H     6.083000000     1.342000000     0.605000000
H     6.112000000     1.218000000    -1.156000000
C     4.956000000    -0.363000000    -0.085000000
C     4.702000000    -1.213000000    -1.133000000
C     4.118000000    -2.428000000    -0.896000000
H     3.788000000    -3.059000000    -1.717000000
C     3.850000000    -2.851000000     0.391000000
O     2.965000000    -3.894000000     0.637000000
C     1.552000000    -3.707000000     1.131000000
H     1.231000000    -2.696000000     0.842000000
C     0.653000000    -4.765000000     0.506000000
C    -0.519000000    -5.167000000     1.193000000
H    -0.813000000    -4.691000000     2.125000000
C     0.938000000    -5.221000000    -0.795000000
H     1.815000000    -4.797000000    -1.277000000
C     0.100000000    -6.134000000    -1.445000000
O     0.331000000    -6.727000000    -2.692000000
C    -1.002000000    -6.596000000    -0.689000000
H    -1.549000000    -7.412000000    -1.153000000
C    -1.357000000    -6.125000000     0.548000000
O    -2.481000000    -6.615000000     1.188000000
C    -3.351000000    -5.758000000     1.825000000
C    -3.672000000    -4.537000000     1.231000000
H    -3.191000000    -4.263000000     0.296000000
C    -3.785000000    -6.049000000     3.175000000
H    -3.392000000    -6.893000000     3.737000000
C    -4.489000000    -5.052000000     3.889000000
H    -4.810000000    -5.233000000     4.912000000
C    -4.906000000    -3.880000000     3.236000000
H    -5.394000000    -3.102000000     3.818000000
C    -4.441000000    -3.612000000     1.943000000
O    -4.623000000    -2.387000000     1.329000000
C    -4.493000000    -1.213000000     1.962000000
C    -5.484000000    -0.313000000     2.151000000
H    -6.467000000    -0.571000000     1.765000000
C    -5.293000000     0.785000000     2.953000000
O    -6.281000000     1.772000000     2.986000000
C    -6.083000000     2.966000000     2.439000000
C    -5.328000000     3.274000000     1.272000000
H    -4.812000000     2.445000000     0.794000000
C    -6.544000000     4.002000000     3.235000000
H    -6.943000000     3.659000000     4.187000000
C    -6.348000000     5.359000000     2.924000000
H    -6.722000000     6.159000000     3.558000000
C    -5.658000000     5.658000000     1.743000000
H    -5.436000000     6.695000000     1.507000000
C    -5.263000000     4.628000000     0.904000000
O    -4.741000000     4.976000000    -0.294000000
C    -3.501000000     4.564000000    -0.832000000
C    -3.495000000     4.271000000    -2.170000000
H    -4.436000000     4.321000000    -2.713000000
C    -2.326000000     3.907000000    -2.821000000
O    -2.420000000     3.533000000    -4.140000000
C    -1.318000000     3.592000000    -5.000000000
C    -0.763000000     2.405000000    -5.429000000
H    -1.095000000     1.434000000    -5.072000000
C    -0.682000000     4.824000000    -5.225000000
H    -1.107000000     5.726000000    -4.792000000
C     0.305000000     4.916000000    -6.194000000
H     0.829000000     5.867000000    -6.240000000
C     0.820000000     3.744000000    -6.744000000
H     1.674000000     3.715000000    -7.416000000
C     0.374000000     2.498000000    -6.328000000
O     0.902000000     1.359000000    -6.810000000
C     1.473000000     0.411000000    -6.007000000
C     1.310000000    -0.861000000    -6.290000000
H     0.767000000    -1.160000000    -7.183000000
C     1.698000000    -1.861000000    -5.332000000
O     1.300000000    -3.172000000    -5.534000000
C     1.747000000    -4.302000000    -4.981000000
C     2.936000000    -4.878000000    -5.206000000
H     3.575000000    -4.334000000    -5.896000000
C     3.301000000    -6.087000000    -4.630000000
H     4.287000000    -6.519000000    -4.778000000
C     2.415000000    -6.665000000    -3.723000000
H     2.681000000    -7.629000000    -3.297000000
C     1.182000000    -6.055000000    -3.521000000
C     0.752000000    -4.965000000    -4.213000000
H    -0.276000000    -4.667000000    -4.019000000
C    -0.267000000    -1.687000000    -2.047000000
H     0.148000000    -2.526000000    -2.599000000
C     0.559000000    -1.131000000    -1.044000000
H     1.564000000    -1.468000000    -0.801000000
C     0.181000000     0.071000000    -0.472000000
C     1.176000000     0.670000000     0.503000000
H     1.987000000    -0.040000000     0.676000000
H     1.752000000     1.513000000     0.113000000
H     0.704000000     0.946000000     1.448000000
C    -1.006000000     0.636000000    -0.724000000
H    -1.276000000     1.483000000    -0.099000000
C    -1.952000000     0.011000000    -1.628000000
H    -2.905000000     0.526000000    -1.714000000
C    -1.536000000    -1.162000000    -2.266000000
C    -2.436000000    -1.900000000    -3.262000000
O    -3.598000000    -1.610000000    -3.344000000
O    -1.944000000    -2.710000000    -4.026000000
O    -9.004000000    -2.467000000    -2.731000000
H    -8.860000000    -2.889000000    -3.578000000
H    -8.124000000    -2.307000000    -2.391000000
O    -3.948000000    -8.233000000    -3.097000000
H    -3.839000000    -7.300000000    -2.911000000
H    -4.872000000    -8.406000000    -2.918000000
O    -5.607000000    -3.523000000    -5.567000000
H    -5.506000000    -4.436000000    -5.838000000
H    -5.143000000    -3.021000000    -6.237000000
O    -1.853000000    -4.607000000    -6.104000000
H    -1.927000000    -3.941000000    -6.788000000
H    -1.702000000    -4.109000000    -5.301000000
O    -6.950000000    -2.850000000    -0.711000000
H    -6.488000000    -2.290000000    -0.088000000
H    -6.273000000    -3.138000000    -1.323000000
O    -5.323000000     1.616000000    -5.753000000
H    -5.763000000     2.345000000    -5.316000000
H    -5.449000000     1.784000000    -6.686000000
O    -2.442000000    -6.877000000    -7.062000000
H    -2.837000000    -7.105000000    -6.221000000
H    -2.048000000    -6.016000000    -6.917000000
O    -2.803000000    -3.423000000   -10.465000000
H    -2.990000000    -4.304000000   -10.139000000
H    -2.456000000    -2.955000000    -9.705000000
O    -5.006000000    -1.709000000    -8.455000000
H    -4.670000000    -0.981000000    -8.977000000
H    -4.605000000    -1.591000000    -7.594000000
O     1.003000000    -3.659000000    -8.752000000
H     0.953000000    -4.489000000    -8.278000000
H     0.277000000    -3.141000000    -8.406000000
O    -3.572000000    -1.459000000    -6.172000000
H    -3.464000000    -1.846000000    -5.304000000
H    -3.557000000    -0.514000000    -6.017000000
O    -3.779000000    -5.463000000    -2.530000000
H    -4.490000000    -4.827000000    -2.599000000
H    -2.995000000    -4.975000000    -2.783000000
O    -7.426000000     0.436000000    -1.039000000
H    -6.891000000     0.077000000    -1.747000000
H    -7.298000000     1.383000000    -1.098000000
O    -5.778000000    -6.268000000    -5.639000000
H    -6.630000000    -6.298000000    -5.202000000
H    -5.592000000    -7.180000000    -5.863000000
O    -5.519000000     0.455000000    -2.930000000
H    -4.790000000    -0.154000000    -3.051000000
H    -5.417000000     1.093000000    -3.636000000
O    -0.239000000    -0.311000000    -9.481000000
H     0.482000000    -0.269000000    -8.854000000
H     0.177000000    -0.548000000   -10.309000000
O    -1.759000000    -2.617000000    -7.908000000
H    -1.537000000    -1.796000000    -8.347000000
H    -2.450000000    -2.378000000    -7.289000000
O    -7.080000000    -0.803000000    -5.517000000
H    -6.434000000    -0.097000000    -5.498000000
H    -6.574000000    -1.596000000    -5.338000000
O    -5.613000000    -3.260000000    -2.884000000
H    -5.695000000    -3.511000000    -3.804000000
H    -4.797000000    -2.760000000    -2.844000000
