218
-1473.25914
C    -3.356000000     1.037000000     4.489000000
H    -3.026000000     2.071000000     4.564000000
C    -2.338000000     0.018000000     4.364000000
C    -2.742000000    -1.335000000     4.222000000
H    -2.031000000    -2.155000000     4.159000000
C    -0.817000000     0.358000000     4.246000000
O    -0.592000000     1.693000000     4.742000000
H    -0.683000000     0.404000000     3.156000000
O     0.007000000    -0.623000000     4.963000000
C     1.164000000    -0.957000000     4.260000000
C     1.204000000    -2.207000000     3.598000000
H     0.413000000    -2.929000000     3.782000000
C     2.342000000    -2.555000000     2.872000000
O     2.109000000    -3.559000000     2.017000000
C     3.516000000    -1.751000000     2.893000000
C     4.722000000    -2.137000000     2.013000000
H     5.651000000    -1.879000000     2.526000000
C     4.668000000    -1.591000000     0.481000000
C     5.021000000    -0.318000000     0.033000000
H     5.420000000     0.359000000     0.783000000
H     4.819000000    -3.224000000     2.068000000
C     3.491000000    -0.497000000     3.513000000
H     4.427000000     0.052000000     3.568000000
C     2.322000000    -0.109000000     4.221000000
C     2.348000000     1.277000000     4.865000000
H     3.324000000     1.712000000     5.088000000
H     1.763000000     1.144000000     5.778000000
C     1.710000000     2.293000000     3.974000000
C     2.518000000     3.193000000     3.190000000
H     3.592000000     3.040000000     3.267000000
C     0.295000000     2.468000000     4.032000000
C    -0.243000000     3.381000000     3.167000000
H    -1.324000000     3.494000000     3.145000000
C     0.534000000     4.129000000     2.289000000
O    -0.105000000     4.875000000     1.352000000
C    -0.252000000     4.213000000     0.105000000
C    -1.743000000     4.167000000    -0.262000000
C    -2.061000000     3.624000000    -1.473000000
H    -1.217000000     3.287000000    -2.070000000
C    -2.848000000     4.490000000     0.595000000
H    -2.629000000     4.822000000     1.607000000
O     0.604000000     4.799000000    -0.873000000
H     0.117000000     3.206000000     0.349000000
C     1.951000000     4.036000000     2.262000000
C     2.766000000     4.737000000     1.198000000
H     3.803000000     4.723000000     1.537000000
H     2.523000000     5.789000000     1.036000000
C     2.817000000     3.972000000    -0.090000000
C     3.901000000     3.136000000    -0.375000000
H     4.725000000     3.192000000     0.332000000
C     1.795000000     4.113000000    -1.060000000
C     1.910000000     3.373000000    -2.271000000
H     1.172000000     3.424000000    -3.067000000
C     2.987000000     2.508000000    -2.505000000
O     2.866000000     1.649000000    -3.580000000
C     2.589000000     0.192000000    -3.445000000
C     1.663000000    -0.354000000    -4.532000000
C     0.696000000     0.486000000    -5.073000000
H     0.610000000     1.501000000    -4.693000000
C     1.778000000    -1.609000000    -5.099000000
H     2.561000000    -2.281000000    -4.757000000
O     3.869000000    -0.555000000    -3.483000000
H     2.140000000     0.060000000    -2.450000000
C     4.020000000     2.385000000    -1.543000000
C     5.267000000     1.513000000    -1.680000000
H     6.063000000     1.945000000    -1.071000000
H     5.511000000     1.539000000    -2.744000000
C     4.892000000     0.073000000    -1.308000000
C     4.312000000    -0.858000000    -2.204000000
C     3.896000000    -2.090000000    -1.769000000
H     3.358000000    -2.718000000    -2.474000000
C     4.039000000    -2.433000000    -0.453000000
O     3.277000000    -3.509000000    -0.051000000
C     2.005000000    -3.298000000     0.657000000
H     1.589000000    -2.292000000     0.498000000
C     1.004000000    -4.239000000     0.006000000
C    -0.279000000    -4.374000000     0.535000000
H    -0.514000000    -3.900000000     1.484000000
C     1.342000000    -4.930000000    -1.197000000
H     2.301000000    -4.794000000    -1.690000000
C     0.348000000    -5.632000000    -1.793000000
O     0.494000000    -6.255000000    -2.979000000
C    -0.921000000    -5.761000000    -1.261000000
H    -1.600000000    -6.326000000    -1.894000000
C    -1.258000000    -5.262000000    -0.024000000
O    -2.526000000    -5.444000000     0.558000000
C    -2.701000000    -5.131000000     1.914000000
C    -3.641000000    -4.149000000     2.300000000
H    -4.157000000    -3.530000000     1.571000000
C    -2.047000000    -5.918000000     2.847000000
H    -1.365000000    -6.670000000     2.460000000
C    -2.215000000    -5.688000000     4.195000000
H    -1.756000000    -6.296000000     4.971000000
C    -3.057000000    -4.706000000     4.615000000
H    -3.059000000    -4.501000000     5.683000000
C    -3.791000000    -3.954000000     3.691000000
O    -4.506000000    -2.974000000     4.225000000
C    -4.104000000    -1.672000000     4.294000000
C    -5.063000000    -0.719000000     4.568000000
H    -6.075000000    -1.094000000     4.696000000
C    -4.685000000     0.630000000     4.602000000
O    -5.629000000     1.561000000     4.645000000
C    -5.358000000     2.838000000     4.177000000
C    -5.232000000     3.063000000     2.824000000
H    -5.252000000     2.223000000     2.134000000
C    -5.366000000     3.950000000     5.059000000
H    -5.546000000     3.784000000     6.118000000
C    -5.257000000     5.259000000     4.519000000
H    -5.249000000     6.111000000     5.193000000
C    -5.158000000     5.479000000     3.174000000
H    -5.311000000     6.453000000     2.716000000
C    -5.197000000     4.363000000     2.298000000
O    -5.216000000     4.556000000     0.930000000
C    -4.163000000     4.367000000     0.121000000
C    -4.455000000     3.774000000    -1.122000000
H    -5.456000000     3.645000000    -1.526000000
C    -3.376000000     3.351000000    -1.862000000
O    -3.594000000     2.685000000    -3.093000000
C    -2.838000000     2.819000000    -4.240000000
C    -2.296000000     1.778000000    -4.958000000
H    -2.372000000     0.807000000    -4.475000000
C    -2.754000000     4.099000000    -4.760000000
H    -3.133000000     4.984000000    -4.256000000
C    -2.105000000     4.251000000    -6.006000000
H    -2.148000000     5.213000000    -6.512000000
C    -1.571000000     3.169000000    -6.671000000
H    -0.976000000     3.311000000    -7.570000000
C    -1.581000000     1.931000000    -6.169000000
O    -0.951000000     0.916000000    -6.793000000
C    -0.136000000     0.069000000    -6.108000000
C    -0.100000000    -1.229000000    -6.609000000
H    -0.639000000    -1.552000000    -7.496000000
C     0.863000000    -2.105000000    -6.106000000
O     1.082000000    -3.307000000    -6.652000000
C     1.501000000    -4.324000000    -5.890000000
C     2.792000000    -4.854000000    -6.102000000
H     3.470000000    -4.326000000    -6.768000000
C     3.348000000    -5.722000000    -5.257000000
H     4.377000000    -6.050000000    -5.378000000
C     2.596000000    -6.264000000    -4.212000000
H     3.147000000    -6.881000000    -3.507000000
C     1.242000000    -5.770000000    -4.034000000
C     0.734000000    -4.824000000    -4.834000000
H    -0.282000000    -4.484000000    -4.650000000
C    -1.465000000    -1.695000000    -1.588000000
H    -1.306000000    -2.297000000    -2.479000000
C    -0.405000000    -0.948000000    -1.174000000
H     0.553000000    -1.121000000    -1.658000000
C    -0.503000000    -0.191000000    -0.064000000
C     0.699000000     0.499000000     0.494000000
H     0.300000000     1.074000000     1.332000000
H     1.377000000    -0.271000000     0.868000000
H     1.332000000     1.077000000    -0.183000000
C    -1.713000000    -0.082000000     0.598000000
H    -1.756000000     0.539000000     1.488000000
C    -2.821000000    -0.728000000     0.139000000
H    -3.769000000    -0.599000000     0.657000000
C    -2.658000000    -1.665000000    -0.947000000
C    -3.833000000    -2.525000000    -1.465000000
O    -4.938000000    -2.454000000    -0.901000000
O    -3.714000000    -3.454000000    -2.245000000
O    -7.274000000    -1.373000000    -1.704000000
H    -6.966000000    -0.618000000    -2.205000000
H    -6.475000000    -1.780000000    -1.369000000
O    -6.247000000    -4.029000000    -2.821000000
H    -5.372000000    -3.711000000    -2.597000000
H    -6.742000000    -3.963000000    -2.004000000
O    -6.191000000    -1.052000000     1.314000000
H    -5.608000000    -1.556000000     0.746000000
H    -7.024000000    -1.030000000     0.843000000
O    -4.784000000    -7.254000000     0.287000000
H    -4.722000000    -7.120000000    -0.659000000
H    -3.879000000    -7.205000000     0.595000000
O    -4.007000000    -3.534000000    -7.940000000
H    -4.129000000    -2.886000000    -7.247000000
H    -3.137000000    -3.899000000    -7.776000000
O    -7.496000000    -1.317000000    -5.663000000
H    -7.767000000    -2.145000000    -6.058000000
H    -8.316000000    -0.859000000    -5.478000000
O    -9.988000000    -0.622000000    -0.685000000
H    -9.312000000    -0.634000000    -1.363000000
H    -9.640000000    -1.180000000     0.010000000
O    -2.526000000    -6.254000000    -6.211000000
H    -2.688000000    -5.453000000    -5.714000000
H    -1.867000000    -6.724000000    -5.700000000
O    -4.490000000    -6.102000000    -2.151000000
H    -3.861000000    -5.382000000    -2.186000000
H    -5.345000000    -5.677000000    -2.232000000
O    -6.302000000     1.216000000    -4.875000000
H    -5.943000000     1.714000000    -5.609000000
H    -7.172000000     0.947000000    -5.170000000
O    -6.156000000    -4.941000000     0.240000000
H    -5.665000000    -5.734000000     0.455000000
H    -5.570000000    -4.445000000    -0.332000000
O    -7.415000000    -4.316000000    -5.395000000
H    -7.144000000    -4.151000000    -4.492000000
H    -6.720000000    -4.865000000    -5.757000000
O    -9.066000000    -3.471000000    -2.061000000
H    -8.550000000    -2.681000000    -2.227000000
H    -9.125000000    -3.521000000    -1.107000000
O    -5.793000000     0.852000000    -2.248000000
H    -4.861000000     1.046000000    -2.150000000
H    -5.945000000     0.877000000    -3.193000000
O    -4.559000000    -1.643000000    -6.085000000
H    -5.389000000    -1.569000000    -5.614000000
H    -4.486000000    -0.823000000    -6.573000000
O    -3.205000000    -3.956000000    -4.889000000
H    -3.375000000    -3.838000000    -3.954000000
H    -3.390000000    -3.100000000    -5.276000000
O    -7.371000000     1.661000000    -0.275000000
H    -6.784000000     1.245000000    -0.906000000
H    -7.098000000     1.311000000     0.573000000
O    -3.185000000    -8.349000000    -2.995000000
H    -3.992000000    -8.727000000    -3.344000000
H    -3.427000000    -7.456000000    -2.748000000
O    -7.277000000    -3.333000000     2.511000000
H    -7.000000000    -2.471000000     2.201000000
H    -7.069000000    -3.925000000     1.789000000
