218
-1450.15300
C    -2.615000000     0.805000000     3.584000000
H    -2.327000000     1.837000000     3.399000000
C    -1.651000000     0.082000000     4.267000000
C    -2.028000000    -1.145000000     4.847000000
H    -1.324000000    -1.798000000     5.358000000
C    -0.173000000     0.473000000     4.153000000
O     0.074000000     1.836000000     4.559000000
H     0.084000000     0.252000000     3.107000000
O     0.759000000    -0.343000000     4.890000000
C     1.887000000    -0.720000000     4.300000000
C     1.878000000    -2.020000000     3.766000000
H     1.025000000    -2.666000000     3.956000000
C     2.877000000    -2.357000000     2.855000000
O     2.840000000    -3.566000000     2.232000000
C     3.905000000    -1.394000000     2.523000000
C     5.089000000    -1.755000000     1.580000000
H     5.958000000    -1.148000000     1.841000000
C     4.735000000    -1.509000000     0.118000000
C     4.921000000    -0.273000000    -0.493000000
H     5.344000000     0.592000000     0.013000000
H     5.475000000    -2.748000000     1.820000000
C     3.979000000    -0.125000000     3.195000000
H     4.838000000     0.534000000     3.102000000
C     2.960000000     0.192000000     4.097000000
C     2.939000000     1.630000000     4.606000000
H     3.953000000     2.025000000     4.703000000
H     2.489000000     1.718000000     5.597000000
C     2.219000000     2.516000000     3.575000000
C     2.867000000     3.229000000     2.587000000
H     3.940000000     3.161000000     2.421000000
C     0.802000000     2.543000000     3.619000000
C     0.058000000     3.281000000     2.680000000
H    -1.026000000     3.365000000     2.701000000
C     0.772000000     4.133000000     1.854000000
O     0.091000000     5.026000000     1.035000000
C    -0.159000000     4.553000000    -0.291000000
C    -1.610000000     4.995000000    -0.681000000
C    -1.992000000     4.953000000    -1.977000000
H    -1.249000000     4.888000000    -2.768000000
C    -2.541000000     5.221000000     0.324000000
H    -2.256000000     5.366000000     1.363000000
O     0.833000000     5.028000000    -1.248000000
H    -0.274000000     3.465000000    -0.402000000
C     2.155000000     4.072000000     1.728000000
C     2.907000000     4.891000000     0.658000000
H     3.912000000     4.998000000     1.070000000
H     2.371000000     5.824000000     0.467000000
C     2.900000000     4.066000000    -0.575000000
C     3.909000000     3.120000000    -0.935000000
H     4.784000000     3.040000000    -0.295000000
C     1.834000000     4.141000000    -1.497000000
C     1.662000000     3.242000000    -2.554000000
H     0.810000000     3.378000000    -3.216000000
C     2.670000000     2.338000000    -2.838000000
O     2.428000000     1.439000000    -3.828000000
C     2.060000000     0.082000000    -3.457000000
C     0.853000000    -0.513000000    -4.226000000
C    -0.191000000     0.419000000    -4.595000000
H    -0.051000000     1.489000000    -4.466000000
C     0.666000000    -1.897000000    -4.438000000
H     1.510000000    -2.486000000    -4.090000000
O     3.153000000    -0.839000000    -3.620000000
H     1.828000000     0.055000000    -2.382000000
C     3.838000000     2.356000000    -2.106000000
C     4.880000000     1.327000000    -2.398000000
H     5.814000000     1.566000000    -1.885000000
H     5.209000000     1.264000000    -3.437000000
C     4.535000000    -0.020000000    -1.820000000
C     3.925000000    -1.099000000    -2.549000000
C     3.579000000    -2.291000000    -1.832000000
H     3.037000000    -3.107000000    -2.303000000
C     3.980000000    -2.500000000    -0.581000000
O     3.592000000    -3.688000000     0.012000000
C     2.451000000    -3.532000000     0.799000000
H     1.982000000    -2.573000000     0.532000000
C     1.396000000    -4.630000000     0.519000000
C     0.167000000    -4.608000000     1.225000000
H     0.006000000    -3.956000000     2.080000000
C     1.500000000    -5.486000000    -0.541000000
H     2.384000000    -5.519000000    -1.172000000
C     0.493000000    -6.341000000    -0.810000000
O     0.524000000    -7.121000000    -1.947000000
C    -0.726000000    -6.253000000    -0.117000000
H    -1.556000000    -6.881000000    -0.432000000
C    -0.960000000    -5.363000000     0.891000000
O    -2.172000000    -5.244000000     1.462000000
C    -2.288000000    -5.265000000     2.770000000
C    -2.969000000    -4.228000000     3.356000000
H    -3.233000000    -3.428000000     2.669000000
C    -2.016000000    -6.402000000     3.582000000
H    -1.481000000    -7.266000000     3.197000000
C    -2.227000000    -6.301000000     4.939000000
H    -2.000000000    -7.133000000     5.600000000
C    -2.741000000    -5.136000000     5.508000000
H    -2.826000000    -5.117000000     6.592000000
C    -3.113000000    -4.065000000     4.726000000
O    -3.570000000    -2.870000000     5.253000000
C    -3.283000000    -1.674000000     4.752000000
C    -4.233000000    -0.969000000     3.985000000
H    -5.228000000    -1.372000000     3.817000000
C    -3.951000000     0.280000000     3.515000000
O    -4.901000000     1.005000000     2.856000000
C    -5.097000000     2.322000000     3.001000000
C    -4.877000000     3.161000000     1.930000000
H    -4.810000000     2.698000000     0.948000000
C    -5.290000000     2.898000000     4.297000000
H    -5.506000000     2.247000000     5.141000000
C    -5.229000000     4.266000000     4.444000000
H    -5.448000000     4.787000000     5.372000000
C    -5.037000000     5.076000000     3.322000000
H    -4.968000000     6.161000000     3.345000000
C    -4.874000000     4.578000000     2.074000000
O    -4.877000000     5.423000000     0.971000000
C    -3.873000000     5.313000000    -0.012000000
C    -4.289000000     5.169000000    -1.349000000
H    -5.359000000     5.233000000    -1.527000000
C    -3.322000000     5.062000000    -2.358000000
O    -3.583000000     5.202000000    -3.796000000
C    -2.976000000     4.401000000    -4.696000000
C    -3.028000000     3.016000000    -4.580000000
H    -3.598000000     2.575000000    -3.766000000
C    -2.360000000     4.977000000    -5.788000000
H    -2.273000000     6.048000000    -5.948000000
C    -1.767000000     4.159000000    -6.791000000
H    -1.289000000     4.751000000    -7.567000000
C    -1.815000000     2.742000000    -6.618000000
H    -1.577000000     2.022000000    -7.397000000
C    -2.314000000     2.176000000    -5.434000000
O    -2.487000000     0.778000000    -5.438000000
C    -1.420000000    -0.062000000    -5.106000000
C    -1.553000000    -1.466000000    -5.266000000
H    -2.464000000    -1.855000000    -5.714000000
C    -0.506000000    -2.320000000    -5.081000000
O    -0.776000000    -3.665000000    -5.200000000
C     0.058000000    -4.675000000    -4.761000000
C     1.041000000    -5.189000000    -5.625000000
H     1.327000000    -4.710000000    -6.558000000
C     1.803000000    -6.338000000    -5.300000000
H     2.640000000    -6.607000000    -5.940000000
C     1.529000000    -6.998000000    -4.152000000
H     2.317000000    -7.716000000    -3.937000000
C     0.588000000    -6.497000000    -3.231000000
C    -0.162000000    -5.380000000    -3.553000000
H    -0.888000000    -5.067000000    -2.807000000
C    -2.240000000    -2.538000000    -0.834000000
H    -2.334000000    -3.526000000    -1.278000000
C    -1.120000000    -1.726000000    -0.692000000
H    -0.157000000    -2.073000000    -1.058000000
C    -1.208000000    -0.434000000    -0.063000000
C    -0.005000000     0.351000000     0.177000000
H     0.849000000    -0.330000000     0.191000000
H     0.220000000     0.969000000    -0.695000000
H    -0.115000000     0.888000000     1.121000000
C    -2.498000000     0.106000000     0.298000000
H    -2.614000000     1.088000000     0.748000000
C    -3.537000000    -0.724000000     0.141000000
H    -4.517000000    -0.411000000     0.492000000
C    -3.447000000    -2.028000000    -0.313000000
C    -4.749000000    -2.765000000    -0.440000000
O    -5.825000000    -2.267000000    -0.156000000
O    -4.815000000    -3.811000000    -1.080000000
O    -7.394000000    -3.928000000    -2.083000000
H    -6.567000000    -3.597000000    -1.733000000
H    -8.066000000    -3.511000000    -1.545000000
O    -8.106000000    -6.413000000    -2.680000000
H    -7.627000000    -5.786000000    -2.139000000
H    -7.578000000    -6.498000000    -3.474000000
O    -9.635000000    -5.294000000     1.430000000
H    -9.437000000    -5.413000000     2.359000000
H    -8.778000000    -5.267000000     1.004000000
O    -9.492000000    -2.634000000    -0.940000000
H   -10.082000000    -3.038000000    -0.303000000
H   -10.073000000    -2.267000000    -1.606000000
O    -4.233000000    -4.581000000    -6.244000000
H    -4.813000000    -5.294000000    -6.510000000
H    -4.353000000    -4.515000000    -5.296000000
O    -8.501000000     0.765000000     2.778000000
H    -7.946000000     0.183000000     3.298000000
H    -8.630000000     0.297000000     1.953000000
O    -7.816000000    -1.050000000     0.602000000
H    -6.942000000    -1.373000000     0.385000000
H    -8.408000000    -1.591000000     0.079000000
O    -3.326000000    -7.170000000    -3.325000000
H    -2.442000000    -7.173000000    -3.693000000
H    -3.498000000    -6.250000000    -3.123000000
O    -7.184000000    -4.153000000     1.495000000
H    -6.948000000    -3.643000000     0.720000000
H    -6.379000000    -4.193000000     2.010000000
O    -6.866000000    -0.569000000    -5.582000000
H    -6.436000000    -0.478000000    -6.432000000
H    -7.057000000    -1.504000000    -5.509000000
O    -4.551000000    -6.135000000     0.184000000
H    -4.721000000    -5.445000000    -0.458000000
H    -3.892000000    -5.761000000     0.768000000
O    -8.393000000    -2.029000000     3.382000000
H    -8.246000000    -2.418000000     2.520000000
H    -9.114000000    -2.537000000     3.754000000
O    -7.938000000     0.568000000    -3.222000000
H    -8.731000000     0.135000000    -2.904000000
H    -7.567000000    -0.047000000    -3.855000000
O    -4.613000000    -1.495000000    -3.857000000
H    -4.723000000    -1.271000000    -2.933000000
H    -5.115000000    -0.829000000    -4.326000000
O    -4.372000000    -4.327000000    -3.594000000
H    -4.779000000    -4.308000000    -2.728000000
H    -4.133000000    -3.416000000    -3.766000000
O    -6.737000000     1.708000000    -0.975000000
H    -6.921000000     1.360000000    -1.847000000
H    -6.497000000     0.939000000    -0.457000000
O    -6.818000000    -7.520000000     0.973000000
H    -6.140000000    -7.711000000     1.621000000
H    -6.878000000    -6.565000000     0.964000000
O    -3.715000000    -8.871000000     0.425000000
H    -4.448000000    -9.484000000     0.376000000
H    -4.106000000    -8.015000000     0.249000000
O    -7.766000000    -2.994000000    -4.724000000
H    -7.523000000    -3.823000000    -5.136000000
H    -7.411000000    -3.055000000    -3.837000000
