218
-1453.45305
C    -3.052000000     1.081000000     4.327000000
H    -3.081000000     2.157000000     4.477000000
C    -1.950000000     0.372000000     4.116000000
C    -2.037000000    -1.037000000     3.866000000
H    -1.229000000    -1.738000000     3.670000000
C    -0.604000000     1.067000000     4.124000000
O    -0.724000000     2.454000000     4.400000000
H    -0.195000000     0.949000000     3.110000000
O     0.377000000     0.485000000     5.053000000
C     1.576000000     0.246000000     4.482000000
C     1.902000000    -1.010000000     4.104000000
H     1.290000000    -1.881000000     4.321000000
C     3.070000000    -1.200000000     3.345000000
O     3.237000000    -2.485000000     2.808000000
C     3.970000000    -0.148000000     2.997000000
C     5.208000000    -0.348000000     2.186000000
H     6.028000000     0.324000000     2.448000000
C     4.857000000    -0.298000000     0.687000000
C     4.922000000     0.959000000    -0.051000000
H     5.066000000     1.856000000     0.546000000
H     5.595000000    -1.354000000     2.357000000
C     3.612000000     1.084000000     3.390000000
H     4.111000000     2.026000000     3.177000000
C     2.432000000     1.299000000     4.103000000
C     2.058000000     2.767000000     4.429000000
H     2.867000000     3.437000000     4.727000000
H     1.500000000     2.670000000     5.363000000
C     1.174000000     3.391000000     3.389000000
C     1.701000000     4.124000000     2.360000000
H     2.768000000     4.205000000     2.170000000
C    -0.179000000     3.276000000     3.474000000
C    -1.084000000     3.720000000     2.458000000
H    -2.160000000     3.582000000     2.521000000
C    -0.512000000     4.390000000     1.422000000
O    -1.397000000     4.801000000     0.379000000
C    -1.314000000     4.053000000    -0.823000000
C    -2.749000000     3.718000000    -1.296000000
C    -2.861000000     3.204000000    -2.629000000
H    -2.112000000     3.310000000    -3.409000000
C    -3.830000000     3.523000000    -0.386000000
H    -3.743000000     3.981000000     0.596000000
O    -0.469000000     4.685000000    -1.864000000
H    -0.801000000     3.121000000    -0.541000000
C     0.919000000     4.681000000     1.390000000
C     1.443000000     5.447000000     0.205000000
H     2.323000000     5.989000000     0.557000000
H     0.722000000     6.233000000    -0.028000000
C     1.746000000     4.481000000    -0.967000000
C     3.000000000     3.960000000    -1.154000000
H     3.799000000     4.157000000    -0.444000000
C     0.812000000     4.244000000    -1.992000000
C     1.048000000     3.290000000    -2.999000000
H     0.248000000     2.817000000    -3.563000000
C     2.288000000     2.687000000    -3.037000000
O     2.452000000     1.707000000    -3.989000000
C     2.509000000     0.313000000    -3.558000000
C     1.839000000    -0.577000000    -4.520000000
C     0.769000000    -0.135000000    -5.355000000
H     0.512000000     0.921000000    -5.330000000
C     1.981000000    -2.018000000    -4.416000000
H     2.726000000    -2.424000000    -3.737000000
O     3.863000000    -0.141000000    -3.389000000
H     1.944000000     0.252000000    -2.616000000
C     3.275000000     3.028000000    -2.187000000
C     4.588000000     2.298000000    -2.216000000
H     5.353000000     3.024000000    -1.934000000
H     4.920000000     2.271000000    -3.256000000
C     4.617000000     0.976000000    -1.427000000
C     4.188000000    -0.203000000    -2.091000000
C     4.243000000    -1.380000000    -1.422000000
H     4.056000000    -2.309000000    -1.955000000
C     4.579000000    -1.466000000    -0.090000000
O     4.226000000    -2.593000000     0.639000000
C     3.005000000    -2.680000000     1.403000000
H     2.300000000    -1.952000000     0.974000000
C     2.369000000    -4.078000000     1.274000000
C     1.601000000    -4.579000000     2.356000000
H     1.545000000    -4.120000000     3.340000000
C     2.387000000    -4.784000000     0.065000000
H     3.064000000    -4.359000000    -0.672000000
C     1.742000000    -6.012000000    -0.056000000
O     1.769000000    -6.777000000    -1.245000000
C     0.967000000    -6.457000000     0.983000000
H     0.438000000    -7.406000000     0.948000000
C     0.840000000    -5.763000000     2.156000000
O     0.107000000    -6.326000000     3.132000000
C    -0.965000000    -5.750000000     3.755000000
C    -1.457000000    -4.507000000     3.281000000
H    -1.223000000    -4.043000000     2.326000000
C    -1.333000000    -6.297000000     4.994000000
H    -0.856000000    -7.226000000     5.292000000
C    -2.542000000    -5.785000000     5.626000000
H    -2.997000000    -6.215000000     6.515000000
C    -3.054000000    -4.605000000     5.114000000
H    -4.020000000    -4.211000000     5.418000000
C    -2.501000000    -3.995000000     3.980000000
O    -3.274000000    -2.998000000     3.426000000
C    -3.267000000    -1.643000000     3.774000000
C    -4.391000000    -0.905000000     3.989000000
H    -5.362000000    -1.392000000     4.002000000
C    -4.305000000     0.429000000     4.275000000
O    -5.443000000     1.208000000     4.451000000
C    -5.850000000     2.212000000     3.596000000
C    -5.617000000     2.129000000     2.235000000
H    -4.946000000     1.394000000     1.798000000
C    -6.494000000     3.340000000     4.098000000
H    -6.549000000     3.528000000     5.167000000
C    -7.161000000     4.238000000     3.213000000
H    -7.726000000     5.101000000     3.557000000
C    -7.131000000     4.010000000     1.822000000
H    -7.695000000     4.695000000     1.194000000
C    -6.239000000     3.049000000     1.298000000
O    -6.187000000     2.885000000    -0.061000000
C    -5.043000000     2.940000000    -0.773000000
C    -5.076000000     2.473000000    -2.067000000
H    -6.070000000     2.136000000    -2.350000000
C    -4.098000000     2.610000000    -2.976000000
O    -4.221000000     2.145000000    -4.246000000
C    -3.380000000     2.027000000    -5.285000000
C    -2.588000000     0.866000000    -5.325000000
H    -2.714000000     0.028000000    -4.643000000
C    -3.273000000     2.990000000    -6.281000000
H    -3.915000000     3.865000000    -6.212000000
C    -2.449000000     2.758000000    -7.389000000
H    -2.467000000     3.440000000    -8.235000000
C    -1.749000000     1.600000000    -7.443000000
H    -1.095000000     1.223000000    -8.225000000
C    -1.903000000     0.591000000    -6.456000000
O    -1.211000000    -0.581000000    -6.652000000
C    -0.069000000    -1.000000000    -6.027000000
C     0.185000000    -2.348000000    -6.021000000
H    -0.497000000    -3.003000000    -6.557000000
C     1.181000000    -2.882000000    -5.205000000
O     1.353000000    -4.237000000    -5.229000000
C     2.136000000    -4.869000000    -4.259000000
C     3.488000000    -4.966000000    -4.532000000
H     3.784000000    -4.337000000    -5.367000000
C     4.346000000    -5.599000000    -3.656000000
H     5.415000000    -5.505000000    -3.825000000
C     3.682000000    -6.247000000    -2.572000000
H     4.300000000    -6.782000000    -1.855000000
C     2.266000000    -6.170000000    -2.329000000
C     1.490000000    -5.448000000    -3.195000000
H     0.405000000    -5.444000000    -3.141000000
C    -2.284000000     0.014000000    -1.379000000
H    -2.961000000     0.461000000    -2.102000000
C    -1.007000000     0.532000000    -1.199000000
H    -0.726000000     1.318000000    -1.895000000
C    -0.148000000     0.165000000    -0.205000000
C     1.163000000     0.857000000     0.010000000
H     1.155000000     1.791000000    -0.555000000
H     1.343000000     1.115000000     1.056000000
H     2.020000000     0.262000000    -0.313000000
C    -0.513000000    -0.832000000     0.660000000
H     0.166000000    -1.056000000     1.478000000
C    -1.738000000    -1.449000000     0.495000000
H    -2.130000000    -2.171000000     1.207000000
C    -2.668000000    -1.007000000    -0.480000000
C    -4.019000000    -1.692000000    -0.715000000
O    -4.412000000    -2.493000000     0.056000000
O    -4.579000000    -1.543000000    -1.800000000
O    -3.405000000    -4.751000000     0.956000000
H    -3.830000000    -4.657000000     1.809000000
H    -3.581000000    -3.923000000     0.508000000
O    -1.071000000    -2.983000000    -2.090000000
H    -1.283000000    -2.545000000    -1.266000000
H    -0.604000000    -2.321000000    -2.600000000
O    -8.881000000    -3.915000000    -2.020000000
H    -9.056000000    -4.210000000    -2.914000000
H    -8.027000000    -3.485000000    -2.073000000
O    -7.764000000     1.109000000    -4.226000000
H    -8.574000000     0.787000000    -4.622000000
H    -7.099000000     0.473000000    -4.491000000
O    -5.841000000    -3.925000000    -1.785000000
H    -5.961000000    -4.051000000    -0.844000000
H    -5.244000000    -3.180000000    -1.853000000
O    -7.328000000    -0.868000000    -1.593000000
H    -6.418000000    -1.137000000    -1.463000000
H    -7.398000000    -0.708000000    -2.534000000
O    -2.218000000    -7.200000000     0.194000000
H    -2.558000000    -6.307000000     0.132000000
H    -2.495000000    -7.501000000     1.060000000
O    -9.248000000    -1.567000000     2.344000000
H    -8.392000000    -1.782000000     1.974000000
H    -9.534000000    -2.375000000     2.770000000
O    -6.675000000    -2.237000000     1.363000000
H    -5.920000000    -2.192000000     0.776000000
H    -6.936000000    -3.158000000     1.346000000
O    -7.067000000    -4.994000000     1.570000000
H    -6.537000000    -5.726000000     1.253000000
H    -7.121000000    -5.130000000     2.515000000
O    -2.350000000    -5.355000000    -2.540000000
H    -1.781000000    -4.604000000    -2.705000000
H    -2.689000000    -5.209000000    -1.657000000
O    -4.365000000    -1.630000000    -6.366000000
H    -4.704000000    -1.225000000    -5.567000000
H    -4.001000000    -2.466000000    -6.075000000
O    -8.507000000     1.267000000    -0.253000000
H    -8.244000000     0.388000000    -0.523000000
H    -7.711000000     1.653000000     0.114000000
O    -1.371000000    -6.373000000    -4.997000000
H    -1.985000000    -7.104000000    -5.058000000
H    -1.400000000    -6.111000000    -4.077000000
O    -6.606000000    -4.279000000     4.360000000
H    -6.199000000    -3.839000000     5.106000000
H    -6.729000000    -3.587000000     3.711000000
O    -2.967000000    -4.280000000    -5.606000000
H    -2.853000000    -4.380000000    -4.661000000
H    -2.228000000    -4.753000000    -5.988000000
O    -5.128000000    -0.504000000    -4.091000000
H    -4.875000000     0.419000000    -4.123000000
H    -4.856000000    -0.796000000    -3.221000000
O    -5.420000000    -5.436000000    -5.951000000
H    -4.564000000    -5.026000000    -5.824000000
H    -5.817000000    -4.945000000    -6.670000000
O    -6.380000000    -6.145000000    -3.693000000
H    -5.946000000    -5.835000000    -4.487000000
H    -6.188000000    -5.475000000    -3.037000000
