218
-1460.51064
C    -2.810000000     0.841000000     4.554000000
H    -2.851000000     1.926000000     4.529000000
C    -1.622000000     0.168000000     4.440000000
C    -1.554000000    -1.219000000     4.460000000
H    -0.652000000    -1.786000000     4.243000000
C    -0.290000000     0.836000000     4.183000000
O    -0.470000000     2.257000000     4.429000000
H     0.022000000     0.688000000     3.139000000
O     0.883000000     0.450000000     4.885000000
C     2.086000000     0.440000000     4.250000000
C     2.527000000    -0.814000000     3.809000000
H     1.846000000    -1.651000000     3.937000000
C     3.679000000    -0.936000000     3.004000000
O     3.921000000    -2.158000000     2.485000000
C     4.436000000     0.181000000     2.634000000
C     5.513000000     0.068000000     1.586000000
H     6.322000000     0.796000000     1.682000000
C     5.059000000    -0.006000000     0.068000000
C     4.917000000     1.163000000    -0.692000000
H     5.167000000     2.135000000    -0.273000000
H     5.988000000    -0.847000000     1.948000000
C     3.984000000     1.393000000     3.118000000
H     4.522000000     2.298000000     2.845000000
C     2.800000000     1.573000000     3.830000000
C     2.378000000     2.954000000     4.126000000
H     3.250000000     3.607000000     4.046000000
H     1.926000000     3.046000000     5.115000000
C     1.264000000     3.383000000     3.168000000
C     1.595000000     4.026000000     1.994000000
H     2.625000000     4.114000000     1.657000000
C    -0.115000000     3.170000000     3.475000000
C    -1.098000000     3.487000000     2.495000000
H    -2.143000000     3.241000000     2.665000000
C    -0.688000000     4.267000000     1.400000000
O    -1.652000000     4.640000000     0.464000000
C    -1.774000000     3.837000000    -0.715000000
C    -3.151000000     3.409000000    -0.994000000
C    -3.499000000     2.875000000    -2.205000000
H    -2.757000000     2.976000000    -2.993000000
C    -4.159000000     3.382000000    -0.039000000
H    -4.053000000     3.942000000     0.886000000
O    -1.040000000     4.294000000    -1.840000000
H    -1.399000000     2.825000000    -0.501000000
C     0.656000000     4.518000000     1.177000000
C     1.085000000     5.233000000    -0.104000000
H     1.866000000     5.967000000     0.103000000
H     0.288000000     5.977000000    -0.171000000
C     1.312000000     4.416000000    -1.336000000
C     2.571000000     4.017000000    -1.643000000
H     3.402000000     4.215000000    -0.970000000
C     0.292000000     3.978000000    -2.144000000
C     0.519000000     3.216000000    -3.343000000
H    -0.340000000     2.899000000    -3.929000000
C     1.831000000     2.734000000    -3.495000000
O     2.063000000     1.700000000    -4.395000000
C     2.043000000     0.397000000    -3.851000000
C     1.201000000    -0.550000000    -4.791000000
C    -0.013000000    -0.144000000    -5.372000000
H    -0.423000000     0.843000000    -5.176000000
C     1.716000000    -1.828000000    -5.045000000
H     2.583000000    -2.264000000    -4.554000000
O     3.342000000    -0.150000000    -3.731000000
H     1.461000000     0.469000000    -2.921000000
C     2.875000000     3.122000000    -2.657000000
C     4.250000000     2.513000000    -2.807000000
H     4.928000000     3.215000000    -2.316000000
H     4.644000000     2.364000000    -3.814000000
C     4.361000000     1.176000000    -2.024000000
C     4.053000000    -0.069000000    -2.559000000
C     4.143000000    -1.215000000    -1.851000000
H     3.731000000    -2.169000000    -2.169000000
C     4.601000000    -1.201000000    -0.506000000
O     4.501000000    -2.343000000     0.211000000
C     3.385000000    -2.354000000     1.142000000
H     2.641000000    -1.579000000     0.904000000
C     2.543000000    -3.601000000     1.041000000
C     2.307000000    -4.412000000     2.116000000
H     2.604000000    -4.191000000     3.138000000
C     2.085000000    -3.997000000    -0.214000000
H     2.323000000    -3.352000000    -1.057000000
C     1.358000000    -5.190000000    -0.359000000
O     0.901000000    -5.563000000    -1.577000000
C     1.062000000    -5.897000000     0.740000000
H     0.406000000    -6.763000000     0.802000000
C     1.418000000    -5.468000000     2.028000000
O     0.951000000    -6.198000000     3.126000000
C     0.095000000    -5.620000000     4.049000000
C    -0.932000000    -4.753000000     3.694000000
H    -1.106000000    -4.546000000     2.641000000
C     0.160000000    -6.069000000     5.425000000
H     0.746000000    -6.905000000     5.797000000
C    -0.547000000    -5.394000000     6.343000000
H    -0.591000000    -5.825000000     7.340000000
C    -1.536000000    -4.468000000     5.955000000
H    -2.201000000    -4.076000000     6.720000000
C    -1.697000000    -4.144000000     4.647000000
O    -2.774000000    -3.356000000     4.261000000
C    -2.734000000    -1.976000000     4.452000000
C    -3.962000000    -1.382000000     4.675000000
H    -4.883000000    -1.948000000     4.785000000
C    -4.033000000     0.040000000     4.671000000
O    -5.228000000     0.507000000     4.826000000
C    -5.568000000     1.740000000     4.208000000
C    -5.803000000     1.700000000     2.857000000
H    -5.730000000     0.752000000     2.330000000
C    -5.491000000     2.956000000     4.888000000
H    -5.241000000     2.976000000     5.945000000
C    -5.965000000     4.077000000     4.207000000
H    -6.071000000     4.964000000     4.828000000
C    -6.246000000     4.032000000     2.856000000
H    -6.637000000     4.929000000     2.381000000
C    -6.126000000     2.813000000     2.098000000
O    -6.364000000     2.798000000     0.758000000
C    -5.382000000     2.721000000    -0.244000000
C    -5.608000000     1.967000000    -1.380000000
H    -6.520000000     1.422000000    -1.609000000
C    -4.677000000     2.160000000    -2.419000000
O    -4.883000000     1.550000000    -3.687000000
C    -4.035000000     1.594000000    -4.753000000
C    -3.536000000     0.389000000    -5.354000000
H    -3.726000000    -0.574000000    -4.888000000
C    -3.874000000     2.767000000    -5.463000000
H    -4.340000000     3.675000000    -5.088000000
C    -3.009000000     2.839000000    -6.516000000
H    -2.826000000     3.850000000    -6.871000000
C    -2.368000000     1.711000000    -7.029000000
H    -1.784000000     1.836000000    -7.938000000
C    -2.652000000     0.452000000    -6.389000000
O    -1.914000000    -0.638000000    -6.837000000
C    -0.652000000    -0.938000000    -6.259000000
C    -0.194000000    -2.268000000    -6.467000000
H    -0.755000000    -2.977000000    -7.071000000
C     0.979000000    -2.640000000    -5.899000000
O     1.420000000    -3.936000000    -6.045000000
C     1.752000000    -4.779000000    -5.044000000
C     2.924000000    -5.496000000    -5.228000000
H     3.482000000    -5.412000000    -6.157000000
C     3.393000000    -6.293000000    -4.227000000
H     4.250000000    -6.930000000    -4.427000000
C     2.701000000    -6.303000000    -2.976000000
H     2.949000000    -6.963000000    -2.148000000
C     1.537000000    -5.520000000    -2.789000000
C     1.083000000    -4.751000000    -3.822000000
H     0.249000000    -4.084000000    -3.620000000
C    -1.917000000    -0.503000000    -1.522000000
H    -2.454000000    -0.303000000    -2.445000000
C    -0.882000000     0.359000000    -1.158000000
H    -0.667000000     1.159000000    -1.861000000
C    -0.123000000    -0.089000000    -0.081000000
C     1.035000000     0.719000000     0.331000000
H     1.880000000     0.438000000    -0.301000000
H     0.867000000     1.798000000     0.335000000
H     1.410000000     0.537000000     1.340000000
C    -0.332000000    -1.323000000     0.599000000
H     0.311000000    -1.671000000     1.404000000
C    -1.444000000    -2.036000000     0.256000000
H    -1.646000000    -2.965000000     0.783000000
C    -2.254000000    -1.658000000    -0.813000000
C    -3.505000000    -2.512000000    -1.120000000
O    -3.985000000    -3.297000000    -0.266000000
O    -4.195000000    -2.388000000    -2.113000000
O    -2.490000000    -5.468000000     0.310000000
H    -2.564000000    -5.665000000     1.244000000
H    -2.816000000    -4.572000000     0.229000000
O    -1.430000000    -7.577000000    -1.106000000
H    -0.766000000    -7.243000000    -1.709000000
H    -1.716000000    -6.808000000    -0.614000000
O    -7.773000000     0.430000000    -3.871000000
H    -8.356000000     0.381000000    -3.113000000
H    -7.210000000    -0.340000000    -3.790000000
O    -6.852000000    -3.474000000    -1.007000000
H    -7.464000000    -2.779000000    -0.765000000
H    -5.987000000    -3.105000000    -0.829000000
O    -8.615000000    -1.292000000    -0.763000000
H    -8.839000000    -1.814000000    -1.533000000
H    -8.969000000    -0.422000000    -0.951000000
O    -3.581000000    -6.652000000     2.861000000
H    -4.040000000    -6.980000000     3.634000000
H    -4.248000000    -6.168000000     2.374000000
O    -7.539000000    -2.508000000     2.727000000
H    -6.716000000    -2.993000000     2.658000000
H    -7.647000000    -2.354000000     3.666000000
O    -5.530000000    -4.087000000     1.815000000
H    -5.046000000    -3.450000000     1.290000000
H    -5.567000000    -4.871000000     1.267000000
O    -5.694000000    -6.492000000     0.822000000
H    -5.096000000    -7.230000000     0.940000000
H    -6.154000000    -6.685000000     0.005000000
O    -3.849000000    -6.644000000    -2.063000000
H    -3.131000000    -6.496000000    -1.448000000
H    -4.589000000    -6.168000000    -1.687000000
O    -5.328000000    -2.379000000    -6.206000000
H    -5.917000000    -2.162000000    -5.483000000
H    -4.563000000    -2.768000000    -5.783000000
O    -7.954000000    -0.128000000     1.537000000
H    -7.717000000    -0.780000000     2.197000000
H    -8.254000000    -0.643000000     0.788000000
O    -4.869000000    -9.155000000    -1.943000000
H    -5.361000000    -9.445000000    -2.711000000
H    -4.488000000    -8.317000000    -2.204000000
O    -2.283000000    -6.038000000    -4.403000000
H    -2.845000000    -6.238000000    -3.655000000
H    -2.616000000    -6.593000000    -5.109000000
O    -5.526000000    -4.559000000     4.694000000
H    -4.707000000    -4.161000000     4.990000000
H    -5.519000000    -4.443000000     3.744000000
O    -3.713000000    -3.581000000    -4.575000000
H    -3.849000000    -3.139000000    -3.737000000
H    -3.194000000    -4.355000000    -4.356000000
O    -6.497000000    -1.966000000    -3.325000000
H    -6.938000000    -2.793000000    -3.131000000
H    -5.613000000    -2.078000000    -2.976000000
O    -6.386000000    -4.900000000    -4.551000000
H    -5.507000000    -4.561000000    -4.381000000
H    -6.449000000    -4.932000000    -5.506000000
O    -6.563000000    -6.155000000    -2.027000000
H    -6.798000000    -5.938000000    -2.929000000
H    -6.481000000    -5.307000000    -1.590000000
