218
-1478.58565
C    -2.531000000     0.792000000     4.749000000
H    -2.679000000     1.752000000     4.261000000
C    -1.364000000     0.117000000     4.709000000
C    -1.240000000    -1.267000000     5.021000000
H    -0.276000000    -1.758000000     4.910000000
C    -0.086000000     0.814000000     4.223000000
O    -0.192000000     2.220000000     4.507000000
H    -0.044000000     0.735000000     3.127000000
O     1.092000000     0.221000000     4.784000000
C     2.280000000    -0.002000000     4.035000000
C     2.579000000    -1.236000000     3.510000000
H     1.995000000    -2.103000000     3.808000000
C     3.613000000    -1.408000000     2.664000000
O     3.630000000    -2.619000000     2.009000000
C     4.342000000    -0.325000000     2.200000000
C     5.435000000    -0.496000000     1.083000000
H     6.127000000     0.344000000     1.182000000
C     4.773000000    -0.375000000    -0.268000000
C     4.911000000     0.828000000    -0.953000000
H     5.331000000     1.731000000    -0.518000000
H     5.945000000    -1.451000000     1.226000000
C     3.958000000     0.996000000     2.589000000
H     4.580000000     1.861000000     2.375000000
C     3.005000000     1.149000000     3.584000000
C     2.700000000     2.597000000     4.036000000
H     3.618000000     3.187000000     4.094000000
H     2.337000000     2.612000000     5.065000000
C     1.572000000     3.255000000     3.178000000
C     1.959000000     4.117000000     2.168000000
H     3.021000000     4.272000000     1.996000000
C     0.224000000     3.060000000     3.464000000
C    -0.700000000     3.587000000     2.604000000
H    -1.762000000     3.365000000     2.666000000
C    -0.292000000     4.367000000     1.499000000
O    -1.215000000     4.705000000     0.627000000
C    -1.383000000     3.903000000    -0.547000000
C    -2.788000000     3.402000000    -0.748000000
C    -3.283000000     3.170000000    -2.059000000
H    -2.615000000     3.287000000    -2.909000000
C    -3.741000000     3.314000000     0.321000000
H    -3.450000000     3.658000000     1.310000000
O    -0.763000000     4.584000000    -1.718000000
H    -0.773000000     3.002000000    -0.381000000
C     1.061000000     4.585000000     1.228000000
C     1.541000000     5.288000000    -0.003000000
H     2.519000000     5.742000000     0.171000000
H     0.921000000     6.145000000    -0.274000000
C     1.662000000     4.456000000    -1.267000000
C     2.897000000     3.900000000    -1.622000000
H     3.807000000     4.154000000    -1.083000000
C     0.544000000     4.157000000    -2.041000000
C     0.630000000     3.345000000    -3.162000000
H    -0.265000000     3.209000000    -3.762000000
C     1.852000000     2.734000000    -3.407000000
O     1.839000000     1.840000000    -4.440000000
C     1.863000000     0.424000000    -4.104000000
C     0.957000000    -0.491000000    -4.858000000
C    -0.287000000     0.020000000    -5.201000000
H    -0.524000000     1.047000000    -4.933000000
C     1.265000000    -1.823000000    -5.206000000
H     2.235000000    -2.295000000    -5.070000000
O     3.144000000    -0.054000000    -4.149000000
H     1.620000000     0.366000000    -3.033000000
C     2.994000000     3.000000000    -2.625000000
C     4.352000000     2.313000000    -2.916000000
H     5.165000000     2.955000000    -2.570000000
H     4.472000000     2.225000000    -3.998000000
C     4.429000000     0.902000000    -2.282000000
C     3.813000000    -0.191000000    -2.937000000
C     3.730000000    -1.388000000    -2.193000000
H     3.227000000    -2.203000000    -2.707000000
C     4.162000000    -1.483000000    -0.896000000
O     3.998000000    -2.689000000    -0.337000000
C     2.979000000    -2.621000000     0.727000000
H     2.389000000    -1.708000000     0.558000000
C     1.998000000    -3.813000000     0.604000000
C     1.363000000    -4.393000000     1.712000000
H     1.458000000    -4.023000000     2.729000000
C     1.775000000    -4.379000000    -0.617000000
H     2.219000000    -3.820000000    -1.437000000
C     0.896000000    -5.439000000    -0.830000000
O     0.627000000    -6.044000000    -1.995000000
C     0.202000000    -5.879000000     0.298000000
H    -0.550000000    -6.645000000     0.127000000
C     0.427000000    -5.387000000     1.549000000
O    -0.170000000    -6.007000000     2.612000000
C    -0.121000000    -5.516000000     3.891000000
C    -0.954000000    -4.449000000     4.217000000
H    -1.542000000    -3.996000000     3.422000000
C     0.593000000    -6.142000000     4.947000000
H     1.125000000    -7.073000000     4.772000000
C     0.391000000    -5.740000000     6.250000000
H     0.968000000    -6.271000000     7.002000000
C    -0.562000000    -4.831000000     6.582000000
H    -0.871000000    -4.531000000     7.580000000
C    -1.172000000    -4.103000000     5.574000000
O    -2.283000000    -3.298000000     5.764000000
C    -2.338000000    -1.970000000     5.422000000
C    -3.522000000    -1.239000000     5.624000000
H    -4.435000000    -1.733000000     5.949000000
C    -3.631000000     0.136000000     5.258000000
O    -4.904000000     0.741000000     5.173000000
C    -5.188000000     1.852000000     4.525000000
C    -5.413000000     1.824000000     3.093000000
H    -5.478000000     0.861000000     2.593000000
C    -5.368000000     3.024000000     5.188000000
H    -5.118000000     3.043000000     6.246000000
C    -5.693000000     4.169000000     4.543000000
H    -5.719000000     5.091000000     5.119000000
C    -5.981000000     4.122000000     3.128000000
H    -6.308000000     5.044000000     2.655000000
C    -5.767000000     3.014000000     2.435000000
O    -6.055000000     3.006000000     1.103000000
C    -5.072000000     2.967000000     0.112000000
C    -5.451000000     2.516000000    -1.125000000
H    -6.457000000     2.121000000    -1.239000000
C    -4.621000000     2.666000000    -2.208000000
O    -5.195000000     2.443000000    -3.444000000
C    -4.403000000     2.241000000    -4.501000000
C    -3.726000000     1.070000000    -4.694000000
H    -3.739000000     0.323000000    -3.904000000
C    -4.221000000     3.345000000    -5.341000000
H    -4.689000000     4.297000000    -5.109000000
C    -3.508000000     3.238000000    -6.570000000
H    -3.381000000     3.966000000    -7.368000000
C    -2.925000000     1.965000000    -6.857000000
H    -2.393000000     1.670000000    -7.757000000
C    -3.001000000     0.926000000    -5.866000000
O    -2.491000000    -0.310000000    -6.195000000
C    -1.212000000    -0.802000000    -5.914000000
C    -0.911000000    -2.078000000    -6.304000000
H    -1.578000000    -2.681000000    -6.914000000
C     0.316000000    -2.594000000    -5.922000000
O     0.602000000    -3.877000000    -6.218000000
C     1.199000000    -4.760000000    -5.301000000
C     2.441000000    -5.238000000    -5.579000000
H     2.920000000    -5.095000000    -6.544000000
C     3.055000000    -6.064000000    -4.719000000
H     3.984000000    -6.580000000    -4.950000000
C     2.423000000    -6.410000000    -3.475000000
H     2.964000000    -7.053000000    -2.786000000
C     1.209000000    -5.794000000    -3.199000000
C     0.504000000    -4.967000000    -4.097000000
H    -0.422000000    -4.441000000    -3.880000000
C    -2.060000000    -1.047000000    -1.110000000
H    -2.830000000    -0.912000000    -1.865000000
C    -1.133000000    -0.024000000    -0.933000000
H    -1.130000000     0.773000000    -1.673000000
C    -0.180000000     0.044000000     0.075000000
C     0.894000000     1.095000000     0.195000000
H     1.883000000     0.638000000     0.258000000
H     0.787000000     1.723000000    -0.692000000
H     0.841000000     1.676000000     1.118000000
C    -0.230000000    -0.984000000     1.040000000
H     0.514000000    -0.981000000     1.832000000
C    -1.172000000    -2.070000000     0.889000000
H    -1.016000000    -2.920000000     1.548000000
C    -2.106000000    -2.077000000    -0.190000000
C    -3.124000000    -3.206000000    -0.366000000
O    -3.036000000    -4.163000000     0.414000000
O    -3.947000000    -3.027000000    -1.309000000
O    -2.812000000    -6.204000000    -1.319000000
H    -2.809000000    -5.501000000    -0.669000000
H    -3.262000000    -5.828000000    -2.076000000
O    -1.760000000    -8.808000000    -2.041000000
H    -1.447000000    -8.569000000    -2.913000000
H    -2.173000000    -8.011000000    -1.708000000
O    -6.751000000    -1.913000000    -4.719000000
H    -7.586000000    -2.264000000    -4.409000000
H    -6.618000000    -1.119000000    -4.201000000
O    -6.713000000    -3.769000000    -0.943000000
H    -7.069000000    -2.909000000    -0.721000000
H    -5.774000000    -3.620000000    -1.047000000
O    -7.873000000    -1.408000000    -0.131000000
H    -7.649000000    -1.543000000     0.789000000
H    -8.828000000    -1.355000000    -0.141000000
O    -2.478000000    -8.023000000     3.997000000
H    -2.500000000    -7.316000000     3.353000000
H    -3.246000000    -8.557000000     3.793000000
O    -5.885000000    -7.533000000     1.921000000
H    -5.347000000    -7.790000000     2.670000000
H    -6.675000000    -8.068000000     2.000000000
O    -5.504000000    -3.822000000     1.862000000
H    -4.911000000    -3.903000000     1.115000000
H    -4.948000000    -3.973000000     2.627000000
O    -3.583000000    -6.308000000     2.123000000
H    -3.379000000    -5.659000000     1.449000000
H    -4.452000000    -6.632000000     1.887000000
O    -8.018000000    -5.109000000     1.346000000
H    -8.031000000    -4.546000000     0.571000000
H    -7.089000000    -5.263000000     1.514000000
O    -5.228000000    -7.627000000    -0.976000000
H    -4.426000000    -7.107000000    -1.030000000
H    -5.504000000    -7.548000000    -0.063000000
O    -2.358000000    -5.033000000    -5.393000000
H    -3.129000000    -5.394000000    -5.831000000
H    -2.661000000    -4.820000000    -4.511000000
O    -7.634000000    -1.903000000     2.552000000
H    -6.826000000    -2.314000000     2.246000000
H    -7.860000000    -2.382000000     3.350000000
O    -6.658000000    -7.437000000    -3.376000000
H    -6.105000000    -7.287000000    -2.609000000
H    -6.692000000    -6.588000000    -3.816000000
O    -4.368000000    -4.720000000     4.422000000
H    -3.789000000    -5.362000000     4.010000000
H    -3.830000000    -4.314000000     5.102000000
O    -4.104000000    -4.690000000    -3.417000000
H    -4.145000000    -3.965000000    -2.793000000
H    -4.976000000    -4.717000000    -3.810000000
O    -5.579000000    -0.713000000    -1.961000000
H    -6.393000000    -0.697000000    -1.457000000
H    -5.031000000    -1.355000000    -1.510000000
O    -1.612000000    -7.646000000    -4.517000000
H    -2.521000000    -7.731000000    -4.806000000
H    -1.358000000    -6.762000000    -4.781000000
O    -8.854000000    -4.736000000    -2.553000000
H    -7.973000000    -4.830000000    -2.191000000
H    -8.746000000    -4.140000000    -3.294000000
