218
-1483.54386
C    -2.733000000     0.433000000     4.325000000
H    -2.949000000     1.350000000     3.782000000
C    -1.411000000    -0.022000000     4.454000000
C    -1.246000000    -1.264000000     5.022000000
H    -0.277000000    -1.716000000     5.218000000
C    -0.211000000     0.811000000     3.992000000
O    -0.527000000     2.266000000     4.118000000
H     0.016000000     0.551000000     2.948000000
O     0.954000000     0.430000000     4.759000000
C     2.141000000     0.348000000     4.057000000
C     2.679000000    -0.888000000     3.739000000
H     2.317000000    -1.808000000     4.191000000
C     3.753000000    -0.986000000     2.818000000
O     4.180000000    -2.141000000     2.276000000
C     4.295000000     0.219000000     2.248000000
C     5.435000000     0.080000000     1.215000000
H     6.079000000     0.961000000     1.260000000
C     4.857000000    -0.001000000    -0.175000000
C     4.653000000     1.195000000    -0.814000000
H     4.738000000     2.150000000    -0.302000000
H     6.046000000    -0.807000000     1.394000000
C     3.760000000     1.464000000     2.604000000
H     4.119000000     2.381000000     2.144000000
C     2.732000000     1.578000000     3.574000000
C     2.314000000     2.951000000     4.034000000
H     3.180000000     3.614000000     4.095000000
H     1.871000000     2.818000000     5.023000000
C     1.263000000     3.486000000     3.013000000
C     1.672000000     4.310000000     1.902000000
H     2.697000000     4.672000000     1.884000000
C    -0.079000000     3.096000000     3.100000000
C    -1.043000000     3.601000000     2.270000000
H    -2.067000000     3.266000000     2.415000000
C    -0.721000000     4.469000000     1.186000000
O    -1.616000000     4.722000000     0.241000000
C    -1.573000000     3.643000000    -0.708000000
C    -2.929000000     3.016000000    -0.926000000
C    -3.187000000     2.380000000    -2.138000000
H    -2.392000000     2.280000000    -2.873000000
C    -4.016000000     3.018000000    -0.027000000
H    -3.910000000     3.451000000     0.965000000
O    -1.046000000     4.322000000    -1.870000000
H    -0.873000000     2.864000000    -0.371000000
C     0.685000000     4.698000000     0.982000000
C     1.143000000     5.475000000    -0.304000000
H     2.074000000     6.008000000    -0.100000000
H     0.404000000     6.200000000    -0.651000000
C     1.351000000     4.450000000    -1.381000000
C     2.648000000     3.988000000    -1.682000000
H     3.552000000     4.287000000    -1.157000000
C     0.271000000     3.979000000    -2.125000000
C     0.457000000     3.100000000    -3.217000000
H    -0.406000000     2.829000000    -3.820000000
C     1.733000000     2.609000000    -3.470000000
O     2.003000000     1.674000000    -4.403000000
C     1.984000000     0.300000000    -3.946000000
C     1.049000000    -0.473000000    -4.836000000
C     0.058000000     0.134000000    -5.652000000
H    -0.083000000     1.204000000    -5.787000000
C     1.029000000    -1.896000000    -4.819000000
H     1.633000000    -2.485000000    -4.133000000
O     3.382000000    -0.196000000    -3.996000000
H     1.521000000     0.309000000    -2.948000000
C     2.791000000     3.054000000    -2.712000000
C     4.121000000     2.440000000    -2.925000000
H     4.922000000     3.137000000    -2.670000000
H     4.229000000     2.215000000    -3.988000000
C     4.330000000     1.135000000    -2.181000000
C     4.041000000    -0.111000000    -2.818000000
C     4.143000000    -1.293000000    -2.098000000
H     3.920000000    -2.243000000    -2.577000000
C     4.482000000    -1.235000000    -0.775000000
O     4.504000000    -2.483000000    -0.066000000
C     3.580000000    -2.416000000     0.996000000
H     2.767000000    -1.689000000     0.851000000
C     2.644000000    -3.623000000     0.994000000
C     2.372000000    -4.251000000     2.252000000
H     2.909000000    -4.009000000     3.165000000
C     1.964000000    -4.077000000    -0.154000000
H     2.264000000    -3.650000000    -1.107000000
C     1.048000000    -5.126000000    -0.037000000
O     0.333000000    -5.603000000    -1.122000000
C     0.824000000    -5.715000000     1.181000000
H     0.160000000    -6.567000000     1.303000000
C     1.470000000    -5.261000000     2.340000000
O     1.201000000    -5.934000000     3.475000000
C     0.685000000    -5.373000000     4.681000000
C    -0.432000000    -4.588000000     4.563000000
H    -0.987000000    -4.417000000     3.644000000
C     1.258000000    -5.685000000     5.913000000
H     2.066000000    -6.408000000     5.990000000
C     0.766000000    -5.091000000     7.051000000
H     1.174000000    -5.306000000     8.036000000
C    -0.367000000    -4.296000000     6.978000000
H    -0.711000000    -3.775000000     7.867000000
C    -1.071000000    -4.188000000     5.779000000
O    -2.220000000    -3.463000000     5.715000000
C    -2.283000000    -2.142000000     5.304000000
C    -3.573000000    -1.689000000     4.919000000
H    -4.432000000    -2.339000000     5.063000000
C    -3.825000000    -0.406000000     4.485000000
O    -5.137000000    -0.040000000     4.230000000
C    -5.470000000     1.221000000     3.724000000
C    -5.801000000     1.313000000     2.390000000
H    -5.578000000     0.483000000     1.723000000
C    -5.635000000     2.325000000     4.571000000
H    -5.411000000     2.278000000     5.634000000
C    -5.935000000     3.555000000     4.047000000
H    -6.037000000     4.456000000     4.646000000
C    -6.299000000     3.607000000     2.681000000
H    -6.621000000     4.542000000     2.229000000
C    -6.163000000     2.554000000     1.811000000
O    -6.381000000     2.732000000     0.450000000
C    -5.291000000     2.608000000    -0.407000000
C    -5.570000000     2.105000000    -1.647000000
H    -6.558000000     1.769000000    -1.950000000
C    -4.518000000     1.998000000    -2.536000000
O    -4.798000000     1.371000000    -3.744000000
C    -4.000000000     1.619000000    -4.904000000
C    -3.153000000     0.658000000    -5.456000000
H    -3.073000000    -0.283000000    -4.918000000
C    -4.157000000     2.905000000    -5.526000000
H    -4.961000000     3.551000000    -5.181000000
C    -3.432000000     3.215000000    -6.693000000
H    -3.465000000     4.169000000    -7.213000000
C    -2.560000000     2.231000000    -7.175000000
H    -1.932000000     2.404000000    -8.045000000
C    -2.463000000     0.980000000    -6.574000000
O    -1.661000000     0.107000000    -7.213000000
C    -0.796000000    -0.603000000    -6.465000000
C    -0.714000000    -1.960000000    -6.519000000
H    -1.432000000    -2.453000000    -7.169000000
C     0.162000000    -2.608000000    -5.690000000
O     0.109000000    -3.995000000    -5.647000000
C     0.698000000    -4.718000000    -4.696000000
C     2.057000000    -5.146000000    -4.891000000
H     2.630000000    -4.905000000    -5.782000000
C     2.674000000    -5.957000000    -3.926000000
H     3.646000000    -6.408000000    -4.110000000
C     2.073000000    -6.152000000    -2.704000000
H     2.473000000    -6.879000000    -2.002000000
C     0.825000000    -5.552000000    -2.412000000
C     0.099000000    -4.920000000    -3.461000000
H    -0.905000000    -4.509000000    -3.384000000
C    -1.950000000    -1.111000000    -1.356000000
H    -2.568000000    -1.195000000    -2.246000000
C    -0.863000000    -0.193000000    -1.380000000
H    -0.613000000     0.360000000    -2.282000000
C    -0.136000000    -0.025000000    -0.201000000
C     1.123000000     0.727000000    -0.141000000
H     1.412000000     1.090000000     0.847000000
H     1.956000000     0.129000000    -0.517000000
H     0.964000000     1.570000000    -0.816000000
C    -0.424000000    -0.782000000     0.923000000
H     0.202000000    -0.852000000     1.809000000
C    -1.442000000    -1.723000000     0.960000000
H    -1.638000000    -2.376000000     1.807000000
C    -2.253000000    -1.826000000    -0.156000000
C    -3.391000000    -2.795000000    -0.110000000
O    -3.524000000    -3.464000000     0.932000000
O    -4.021000000    -3.120000000    -1.134000000
O    -2.889000000    -5.757000000    -0.941000000
H    -2.207000000    -5.423000000    -0.358000000
H    -3.459000000    -5.004000000    -1.099000000
O    -1.737000000    -7.886000000    -2.190000000
H    -1.036000000    -7.401000000    -2.624000000
H    -2.253000000    -7.215000000    -1.743000000
O    -7.358000000     0.048000000    -4.654000000
H    -7.323000000    -0.389000000    -3.803000000
H    -6.536000000    -0.192000000    -5.081000000
O    -6.248000000    -4.219000000     0.048000000
H    -6.305000000    -3.493000000     0.669000000
H    -5.389000000    -4.118000000    -0.361000000
O    -8.326000000    -1.400000000    -1.131000000
H    -8.340000000    -1.493000000    -0.179000000
H    -9.101000000    -0.875000000    -1.332000000
O    -2.994000000    -8.327000000     3.799000000
H    -2.737000000    -7.417000000     3.652000000
H    -3.857000000    -8.268000000     4.208000000
O    -5.749000000    -7.451000000     1.926000000
H    -5.442000000    -7.716000000     2.793000000
H    -5.514000000    -8.181000000     1.354000000
O    -5.616000000    -2.442000000     2.258000000
H    -4.702000000    -2.603000000     2.024000000
H    -5.679000000    -2.711000000     3.175000000
O    -3.310000000    -5.791000000     2.459000000
H    -3.242000000    -4.989000000     1.941000000
H    -4.109000000    -6.213000000     2.142000000
O    -8.210000000    -6.156000000     1.383000000
H    -7.738000000    -5.446000000     0.947000000
H    -7.528000000    -6.660000000     1.826000000
O    -5.436000000    -7.098000000    -2.164000000
H    -4.849000000    -6.863000000    -1.446000000
H    -6.312000000    -6.904000000    -1.830000000
O    -3.833000000    -3.939000000    -6.471000000
H    -4.082000000    -4.787000000    -6.838000000
H    -3.609000000    -4.129000000    -5.560000000
O    -8.307000000    -1.701000000     1.539000000
H    -7.378000000    -1.808000000     1.745000000
H    -8.763000000    -2.165000000     2.241000000
O    -4.874000000    -5.472000000     4.875000000
H    -4.307000000    -5.503000000     4.104000000
H    -5.046000000    -6.390000000     5.083000000
O    -3.775000000    -4.829000000    -3.655000000
H    -3.432000000    -4.638000000    -2.782000000
H    -4.650000000    -5.183000000    -3.496000000
O    -5.915000000    -1.596000000    -2.584000000
H    -6.497000000    -1.351000000    -1.865000000
H    -5.110000000    -1.883000000    -2.153000000
O    -2.151000000    -6.849000000    -4.933000000
H    -2.578000000    -6.281000000    -4.291000000
H    -2.849000000    -7.093000000    -5.540000000
O    -7.933000000    -3.698000000    -3.189000000
H    -7.338000000    -2.953000000    -3.106000000
H    -8.479000000    -3.484000000    -3.946000000
O    -7.997000000    -6.437000000    -1.594000000
H    -7.907000000    -5.633000000    -2.105000000
H    -8.453000000    -6.165000000    -0.797000000
