218
-1479.97149
C    -3.555000000    -0.403000000     2.802000000
H    -3.506000000     0.569000000     2.317000000
C    -2.492000000    -0.665000000     3.679000000
C    -2.299000000    -1.894000000     4.230000000
H    -1.369000000    -2.137000000     4.738000000
C    -1.481000000     0.469000000     3.749000000
O    -2.046000000     1.808000000     4.036000000
H    -0.904000000     0.447000000     2.813000000
O    -0.547000000     0.132000000     4.776000000
C     0.763000000     0.272000000     4.464000000
C     1.344000000    -0.947000000     4.266000000
H     0.765000000    -1.858000000     4.399000000
C     2.605000000    -0.980000000     3.677000000
O     3.027000000    -2.111000000     3.138000000
C     3.307000000     0.220000000     3.482000000
C     4.693000000     0.116000000     2.960000000
H     5.232000000     0.910000000     3.481000000
C     4.644000000     0.269000000     1.456000000
C     4.760000000     1.534000000     0.847000000
H     4.855000000     2.454000000     1.418000000
H     5.124000000    -0.851000000     3.226000000
C     2.712000000     1.439000000     3.832000000
H     3.339000000     2.312000000     3.666000000
C     1.403000000     1.436000000     4.308000000
C     0.658000000     2.648000000     4.732000000
H     1.480000000     3.364000000     4.798000000
H     0.028000000     2.512000000     5.613000000
C    -0.160000000     3.238000000     3.561000000
C     0.390000000     4.262000000     2.740000000
H     1.360000000     4.659000000     3.027000000
C    -1.492000000     2.896000000     3.315000000
C    -2.200000000     3.350000000     2.208000000
H    -3.124000000     2.845000000     1.941000000
C    -1.636000000     4.286000000     1.392000000
O    -2.400000000     4.591000000     0.294000000
C    -2.063000000     3.874000000    -0.921000000
C    -3.264000000     3.450000000    -1.788000000
C    -3.058000000     3.081000000    -3.113000000
H    -2.089000000     3.351000000    -3.526000000
C    -4.497000000     3.190000000    -1.182000000
H    -4.714000000     3.544000000    -0.178000000
O    -1.106000000     4.645000000    -1.695000000
H    -1.476000000     2.969000000    -0.706000000
C    -0.345000000     4.774000000     1.656000000
C     0.379000000     5.621000000     0.699000000
H     1.144000000     6.259000000     1.146000000
H    -0.266000000     6.341000000     0.192000000
C     0.996000000     4.875000000    -0.478000000
C     2.374000000     4.496000000    -0.367000000
H     2.951000000     4.874000000     0.472000000
C     0.223000000     4.384000000    -1.536000000
C     0.882000000     3.617000000    -2.533000000
H     0.331000000     3.150000000    -3.345000000
C     2.244000000     3.250000000    -2.373000000
O     2.860000000     2.391000000    -3.334000000
C     2.838000000     0.962000000    -3.015000000
C     2.287000000     0.122000000    -4.202000000
C     1.293000000     0.667000000    -5.040000000
H     1.022000000     1.716000000    -4.949000000
C     2.587000000    -1.232000000    -4.284000000
H     3.278000000    -1.664000000    -3.565000000
O     4.140000000     0.648000000    -2.658000000
H     2.145000000     0.818000000    -2.173000000
C     3.001000000     3.628000000    -1.237000000
C     4.392000000     3.096000000    -1.126000000
H     4.996000000     3.785000000    -0.532000000
H     4.853000000     3.110000000    -2.115000000
C     4.549000000     1.710000000    -0.547000000
C     4.372000000     0.628000000    -1.327000000
C     4.333000000    -0.654000000    -0.802000000
H     4.189000000    -1.548000000    -1.403000000
C     4.450000000    -0.895000000     0.581000000
O     4.262000000    -2.128000000     1.146000000
C     2.971000000    -2.289000000     1.772000000
H     2.242000000    -1.638000000     1.267000000
C     2.432000000    -3.682000000     1.447000000
C     1.735000000    -4.484000000     2.387000000
H     1.606000000    -4.209000000     3.431000000
C     2.522000000    -4.174000000     0.104000000
H     2.922000000    -3.509000000    -0.658000000
C     2.004000000    -5.442000000    -0.241000000
O     2.069000000    -5.959000000    -1.516000000
C     1.418000000    -6.222000000     0.770000000
H     1.122000000    -7.191000000     0.376000000
C     1.200000000    -5.725000000     2.072000000
O     0.602000000    -6.557000000     3.049000000
C    -0.056000000    -6.041000000     4.142000000
C    -1.186000000    -5.271000000     3.906000000
H    -1.502000000    -5.131000000     2.876000000
C     0.422000000    -6.286000000     5.406000000
H     1.355000000    -6.842000000     5.449000000
C    -0.288000000    -5.797000000     6.516000000
H     0.041000000    -6.070000000     7.516000000
C    -1.450000000    -5.020000000     6.286000000
H    -2.020000000    -4.634000000     7.128000000
C    -1.861000000    -4.792000000     4.981000000
O    -3.049000000    -4.144000000     4.753000000
C    -3.268000000    -2.931000000     4.082000000
C    -4.471000000    -2.601000000     3.426000000
H    -5.203000000    -3.394000000     3.298000000
C    -4.610000000    -1.348000000     2.745000000
O    -5.608000000    -1.119000000     1.829000000
C    -6.142000000     0.147000000     1.696000000
C    -6.231000000     0.580000000     0.356000000
H    -5.763000000     0.001000000    -0.436000000
C    -6.479000000     0.982000000     2.769000000
H    -6.373000000     0.567000000     3.768000000
C    -7.049000000     2.226000000     2.483000000
H    -7.436000000     2.929000000     3.215000000
C    -7.204000000     2.622000000     1.160000000
H    -7.598000000     3.610000000     0.938000000
C    -6.727000000     1.829000000     0.103000000
O    -6.638000000     2.307000000    -1.222000000
C    -5.473000000     2.516000000    -1.878000000
C    -5.308000000     2.201000000    -3.189000000
H    -6.133000000     1.749000000    -3.734000000
C    -4.094000000     2.488000000    -3.809000000
O    -4.043000000     1.997000000    -5.119000000
C    -2.876000000     2.199000000    -5.869000000
C    -2.064000000     1.164000000    -6.183000000
H    -2.346000000     0.128000000    -6.014000000
C    -2.522000000     3.552000000    -6.147000000
H    -3.146000000     4.420000000    -5.951000000
C    -1.416000000     3.770000000    -6.882000000
H    -1.139000000     4.809000000    -7.043000000
C    -0.629000000     2.725000000    -7.269000000
H     0.290000000     2.937000000    -7.809000000
C    -0.932000000     1.385000000    -6.958000000
O     0.072000000     0.425000000    -7.173000000
C     0.823000000    -0.152000000    -6.162000000
C     1.331000000    -1.435000000    -6.382000000
H     1.016000000    -2.038000000    -7.229000000
C     2.144000000    -1.975000000    -5.382000000
O     2.493000000    -3.294000000    -5.594000000
C     3.028000000    -4.089000000    -4.587000000
C     4.315000000    -4.521000000    -4.724000000
H     5.018000000    -4.271000000    -5.514000000
C     4.768000000    -5.491000000    -3.866000000
H     5.769000000    -5.903000000    -3.953000000
C     4.016000000    -5.954000000    -2.790000000
H     4.449000000    -6.740000000    -2.177000000
C     2.786000000    -5.417000000    -2.565000000
C     2.308000000    -4.465000000    -3.460000000
H     1.314000000    -4.081000000    -3.247000000
C    -1.396000000    -1.153000000    -2.020000000
H    -1.680000000    -1.065000000    -3.065000000
C    -0.615000000    -0.139000000    -1.450000000
H    -0.430000000     0.739000000    -2.064000000
C    -0.227000000    -0.224000000    -0.131000000
C     0.710000000     0.844000000     0.412000000
H     0.326000000     1.817000000     0.100000000
H     0.753000000     0.818000000     1.503000000
H     1.744000000     0.677000000     0.105000000
C    -0.536000000    -1.350000000     0.617000000
H    -0.157000000    -1.401000000     1.635000000
C    -1.200000000    -2.428000000     0.086000000
H    -1.502000000    -3.219000000     0.768000000
C    -1.619000000    -2.326000000    -1.242000000
C    -2.472000000    -3.488000000    -1.693000000
O    -2.365000000    -4.578000000    -1.202000000
O    -3.071000000    -3.408000000    -2.756000000
O    -5.957000000    -6.248000000     2.114000000
H    -6.875000000    -6.062000000     2.309000000
H    -5.675000000    -5.517000000     1.564000000
O    -0.408000000    -6.071000000    -6.750000000
H    -1.089000000    -5.607000000    -6.263000000
H    -0.285000000    -6.889000000    -6.269000000
O    -4.029000000    -7.830000000     0.379000000
H    -4.566000000    -7.518000000     1.108000000
H    -4.226000000    -8.765000000     0.320000000
O    -7.025000000    -1.189000000    -3.721000000
H    -6.361000000    -1.748000000    -4.123000000
H    -7.823000000    -1.718000000    -3.731000000
O    -7.500000000    -7.106000000    -0.142000000
H    -7.774000000    -7.316000000     0.751000000
H    -6.578000000    -6.863000000    -0.058000000
O    -4.084000000    -6.376000000    -1.947000000
H    -3.849000000    -6.785000000    -1.114000000
H    -3.521000000    -5.604000000    -2.002000000
O    -0.629000000    -7.243000000    -2.482000000
H    -0.765000000    -6.968000000    -1.575000000
H     0.247000000    -6.923000000    -2.700000000
O    -3.808000000    -6.655000000    -5.191000000
H    -3.321000000    -7.478000000    -5.144000000
H    -3.182000000    -5.989000000    -4.908000000
O    -5.350000000    -4.732000000    -6.294000000
H    -5.289000000    -5.324000000    -5.544000000
H    -5.448000000    -5.311000000    -7.049000000
O    -2.953000000    -4.160000000    -7.562000000
H    -2.804000000    -4.732000000    -8.315000000
H    -3.764000000    -4.485000000    -7.171000000
O    -5.278000000    -4.568000000     0.032000000
H    -5.985000000    -4.046000000    -0.346000000
H    -4.477000000    -4.117000000    -0.236000000
O    -6.226000000    -7.861000000    -3.640000000
H    -6.079000000    -7.771000000    -2.699000000
H    -5.486000000    -7.407000000    -4.043000000
O    -4.884000000    -2.329000000    -4.788000000
H    -4.223000000    -2.428000000    -4.103000000
H    -4.462000000    -2.665000000    -5.579000000
O    -0.620000000    -9.058000000     1.106000000
H    -1.460000000    -9.465000000     1.315000000
H    -0.836000000    -8.145000000     0.918000000
O    -1.722000000    -6.636000000     0.115000000
H    -2.571000000    -7.075000000     0.167000000
H    -1.908000000    -5.804000000    -0.320000000
O    -5.903000000    -4.833000000    -3.349000000
H    -5.301000000    -4.090000000    -3.386000000
H    -5.424000000    -5.505000000    -2.865000000
O    -7.105000000    -2.201000000    -0.996000000
H    -8.058000000    -2.119000000    -0.968000000
H    -6.880000000    -2.073000000    -1.917000000
O    -3.307000000    -9.313000000    -3.156000000
H    -2.760000000    -9.822000000    -2.558000000
H    -3.220000000    -8.410000000    -2.851000000
O    -1.891000000    -5.171000000    -4.189000000
H    -1.629000000    -5.719000000    -3.449000000
H    -2.057000000    -4.311000000    -3.803000000
