218
-1458.06104
C    -2.478000000    -1.227000000     3.843000000
H    -3.046000000    -0.321000000     3.647000000
C    -1.222000000    -1.082000000     4.438000000
C    -0.589000000    -2.219000000     4.880000000
H     0.340000000    -2.213000000     5.445000000
C    -0.520000000     0.259000000     4.400000000
O    -1.384000000     1.365000000     4.815000000
H    -0.187000000     0.450000000     3.369000000
O     0.683000000     0.329000000     5.205000000
C     1.750000000     0.813000000     4.598000000
C     2.491000000    -0.174000000     3.967000000
H     2.198000000    -1.206000000     4.139000000
C     3.458000000     0.120000000     3.021000000
O     4.130000000    -0.887000000     2.326000000
C     3.696000000     1.495000000     2.717000000
C     4.676000000     2.019000000     1.658000000
H     4.889000000     3.018000000     2.044000000
C     4.227000000     1.858000000     0.258000000
C     3.776000000     3.014000000    -0.389000000
H     3.680000000     3.876000000     0.268000000
H     5.617000000     1.482000000     1.792000000
C     3.010000000     2.461000000     3.507000000
H     3.314000000     3.504000000     3.464000000
C     1.966000000     2.176000000     4.323000000
C     0.950000000     3.243000000     4.875000000
H     1.434000000     4.193000000     5.115000000
H     0.502000000     2.974000000     5.834000000
C    -0.236000000     3.365000000     3.953000000
C    -0.179000000     4.300000000     2.931000000
H     0.725000000     4.896000000     2.830000000
C    -1.306000000     2.458000000     3.983000000
C    -2.321000000     2.553000000     2.987000000
H    -3.253000000     2.006000000     3.105000000
C    -2.290000000     3.517000000     1.994000000
O    -3.376000000     3.513000000     1.088000000
C    -3.208000000     2.939000000    -0.266000000
C    -4.358000000     2.157000000    -0.814000000
C    -4.572000000     2.127000000    -2.213000000
H    -3.924000000     2.738000000    -2.837000000
C    -5.293000000     1.527000000     0.039000000
H    -5.110000000     1.623000000     1.106000000
O    -2.780000000     3.968000000    -1.182000000
H    -2.395000000     2.200000000    -0.225000000
C    -1.142000000     4.330000000     1.898000000
C    -1.135000000     5.331000000     0.719000000
H    -0.515000000     6.173000000     1.036000000
H    -2.116000000     5.789000000     0.572000000
C    -0.609000000     4.751000000    -0.628000000
C     0.778000000     4.852000000    -0.914000000
H     1.410000000     5.368000000    -0.195000000
C    -1.448000000     4.010000000    -1.461000000
C    -0.956000000     3.361000000    -2.582000000
H    -1.694000000     2.890000000    -3.227000000
C     0.418000000     3.425000000    -2.872000000
O     0.930000000     2.694000000    -3.903000000
C     1.490000000     1.417000000    -3.569000000
C     1.027000000     0.294000000    -4.460000000
C    -0.228000000     0.424000000    -5.023000000
H    -0.845000000     1.283000000    -4.771000000
C     1.792000000    -0.857000000    -4.804000000
H     2.751000000    -0.945000000    -4.301000000
O     2.964000000     1.489000000    -3.652000000
H     1.227000000     1.198000000    -2.523000000
C     1.271000000     4.206000000    -2.064000000
C     2.771000000     4.168000000    -2.292000000
H     3.209000000     5.062000000    -1.843000000
H     2.979000000     4.210000000    -3.363000000
C     3.401000000     2.891000000    -1.716000000
C     3.410000000     1.681000000    -2.423000000
C     3.909000000     0.571000000    -1.796000000
H     3.959000000    -0.378000000    -2.323000000
C     4.245000000     0.661000000    -0.449000000
O     4.674000000    -0.468000000     0.068000000
C     3.802000000    -1.238000000     0.934000000
H     2.758000000    -0.988000000     0.695000000
C     3.765000000    -2.693000000     0.640000000
C     3.584000000    -3.610000000     1.677000000
H     3.382000000    -3.319000000     2.705000000
C     3.877000000    -3.169000000    -0.657000000
H     4.095000000    -2.473000000    -1.463000000
C     3.776000000    -4.533000000    -0.961000000
O     3.718000000    -5.089000000    -2.207000000
C     3.710000000    -5.434000000     0.061000000
H     3.626000000    -6.481000000    -0.222000000
C     3.513000000    -4.973000000     1.401000000
O     3.185000000    -5.860000000     2.461000000
C     2.613000000    -5.475000000     3.646000000
C     1.241000000    -5.255000000     3.859000000
H     0.519000000    -5.330000000     3.049000000
C     3.545000000    -5.210000000     4.735000000
H     4.611000000    -5.237000000     4.522000000
C     2.992000000    -4.828000000     5.975000000
H     3.650000000    -4.607000000     6.811000000
C     1.576000000    -4.684000000     6.179000000
H     1.240000000    -4.230000000     7.108000000
C     0.724000000    -4.891000000     5.072000000
O    -0.603000000    -4.614000000     5.240000000
C    -1.152000000    -3.465000000     4.645000000
C    -2.392000000    -3.625000000     4.037000000
H    -2.892000000    -4.589000000     4.095000000
C    -3.053000000    -2.482000000     3.694000000
O    -4.264000000    -2.557000000     3.052000000
C    -5.199000000    -1.627000000     2.939000000
C    -5.644000000    -1.185000000     1.717000000
H    -5.014000000    -1.396000000     0.857000000
C    -5.879000000    -1.310000000     4.143000000
H    -5.516000000    -1.768000000     5.060000000
C    -7.056000000    -0.486000000     4.042000000
H    -7.674000000    -0.248000000     4.905000000
C    -7.468000000     0.036000000     2.803000000
H    -8.351000000     0.667000000     2.749000000
C    -6.769000000    -0.305000000     1.650000000
O    -7.193000000     0.115000000     0.393000000
C    -6.329000000     0.763000000    -0.473000000
C    -6.431000000     0.604000000    -1.869000000
H    -7.236000000     0.060000000    -2.355000000
C    -5.619000000     1.322000000    -2.721000000
O    -5.767000000     1.233000000    -4.075000000
C    -4.823000000     1.418000000    -5.064000000
C    -3.911000000     0.360000000    -5.319000000
H    -3.984000000    -0.555000000    -4.736000000
C    -4.714000000     2.554000000    -5.845000000
H    -5.434000000     3.348000000    -5.663000000
C    -3.834000000     2.708000000    -6.878000000
H    -3.867000000     3.527000000    -7.592000000
C    -2.820000000     1.779000000    -7.061000000
H    -2.266000000     1.823000000    -7.995000000
C    -2.902000000     0.584000000    -6.281000000
O    -2.011000000    -0.366000000    -6.527000000
C    -0.731000000    -0.492000000    -5.971000000
C     0.136000000    -1.502000000    -6.380000000
H    -0.302000000    -2.191000000    -7.098000000
C     1.393000000    -1.675000000    -5.810000000
O     2.103000000    -2.849000000    -6.098000000
C     3.177000000    -3.344000000    -5.383000000
C     4.459000000    -3.434000000    -6.006000000
H     4.663000000    -3.091000000    -7.017000000
C     5.471000000    -3.918000000    -5.169000000
H     6.452000000    -4.118000000    -5.592000000
C     5.255000000    -4.443000000    -3.945000000
H     6.119000000    -4.840000000    -3.418000000
C     4.005000000    -4.400000000    -3.345000000
C     2.934000000    -3.755000000    -4.064000000
H     2.008000000    -3.685000000    -3.500000000
C    -1.491000000    -0.973000000    -1.443000000
H    -2.154000000    -0.843000000    -2.295000000
C    -0.868000000     0.138000000    -0.899000000
H    -1.012000000     1.105000000    -1.375000000
C     0.044000000    -0.006000000     0.179000000
C     0.669000000     1.253000000     0.737000000
H     0.082000000     2.156000000     0.553000000
H     0.873000000     1.186000000     1.807000000
H     1.613000000     1.401000000     0.209000000
C     0.190000000    -1.311000000     0.742000000
H     0.773000000    -1.453000000     1.648000000
C    -0.517000000    -2.370000000     0.232000000
H    -0.553000000    -3.349000000     0.703000000
C    -1.310000000    -2.245000000    -0.929000000
C    -2.099000000    -3.448000000    -1.482000000
O    -2.001000000    -4.514000000    -0.905000000
O    -2.790000000    -3.410000000    -2.447000000
O    -0.490000000    -6.634000000     0.235000000
H    -0.846000000    -7.446000000    -0.126000000
H    -0.826000000    -5.948000000    -0.342000000
O    -6.808000000    -2.910000000    -0.904000000
H    -6.793000000    -2.240000000    -0.220000000
H    -7.391000000    -2.554000000    -1.574000000
O    -6.335000000    -1.940000000    -5.324000000
H    -6.751000000    -1.078000000    -5.325000000
H    -5.960000000    -2.024000000    -4.447000000
O     1.533000000    -6.848000000    -6.151000000
H     1.031000000    -6.608000000    -5.372000000
H     0.941000000    -7.406000000    -6.656000000
O    -2.220000000    -4.279000000    -4.722000000
H    -2.476000000    -3.747000000    -3.969000000
H    -2.268000000    -5.181000000    -4.405000000
O    -3.904000000    -6.018000000    -1.931000000
H    -3.271000000    -5.382000000    -1.599000000
H    -4.512000000    -5.500000000    -2.458000000
O    -1.170000000    -6.184000000    -6.745000000
H    -1.848000000    -6.834000000    -6.559000000
H    -1.205000000    -5.582000000    -6.001000000
O     0.203000000    -5.621000000    -3.799000000
H    -0.342000000    -6.297000000    -3.397000000
H    -0.391000000    -4.883000000    -3.935000000
O     2.822000000    -7.857000000    -3.232000000
H     2.455000000    -7.047000000    -3.585000000
H     2.685000000    -7.791000000    -2.287000000
O    -3.655000000    -5.259000000     0.907000000
H    -2.838000000    -5.346000000     0.416000000
H    -3.658000000    -4.350000000     1.207000000
O     1.758000000    -8.387000000    -0.426000000
H     2.645000000    -8.623000000    -0.156000000
H     1.537000000    -7.629000000     0.116000000
O    -0.112000000    -7.807000000     2.696000000
H    -0.288000000    -7.205000000     1.973000000
H    -0.971000000    -7.972000000     3.085000000
O    -1.430000000    -7.429000000    -2.549000000
H    -2.116000000    -6.885000000    -2.162000000
H    -1.867000000    -8.255000000    -2.755000000
O    -6.488000000    -5.676000000    -0.947000000
H    -6.767000000    -4.763000000    -1.014000000
H    -5.544000000    -5.628000000    -0.797000000
O    -1.966000000   -10.218000000    -0.379000000
H    -2.031000000   -10.390000000    -1.319000000
H    -2.685000000    -9.613000000    -0.197000000
O    -3.335000000    -7.453000000     2.382000000
H    -3.803000000    -7.269000000     3.197000000
H    -3.491000000    -6.681000000     1.838000000
O    -5.147000000    -2.383000000    -3.108000000
H    -5.587000000    -2.469000000    -2.263000000
H    -4.285000000    -2.776000000    -2.970000000
O    -4.471000000    -8.616000000    -0.798000000
H    -5.118000000    -9.080000000    -1.329000000
H    -4.453000000    -7.731000000    -1.161000000
O    -3.481000000    -2.967000000    -6.727000000
H    -3.125000000    -3.363000000    -5.931000000
H    -4.028000000    -2.248000000    -6.412000000
