218
-1430.97638
C    -2.379000000    -1.192000000     3.732000000
H    -2.951000000    -0.625000000     3.002000000
C    -1.180000000    -0.762000000     4.318000000
C    -0.391000000    -1.685000000     4.995000000
H     0.567000000    -1.324000000     5.359000000
C    -0.725000000     0.591000000     4.012000000
O    -1.930000000     1.479000000     4.176000000
H    -0.286000000     0.602000000     3.004000000
O     0.403000000     1.039000000     4.887000000
C     1.384000000     1.722000000     4.255000000
C     2.460000000     0.941000000     3.874000000
H     2.559000000    -0.117000000     4.104000000
C     3.366000000     1.398000000     2.959000000
O     4.270000000     0.525000000     2.537000000
C     3.261000000     2.718000000     2.457000000
C     4.214000000     3.310000000     1.498000000
H     4.244000000     4.398000000     1.585000000
C     3.857000000     2.821000000     0.078000000
C     3.123000000     3.678000000    -0.736000000
H     2.999000000     4.684000000    -0.342000000
H     5.204000000     2.920000000     1.745000000
C     2.154000000     3.443000000     2.849000000
H     2.059000000     4.420000000     2.382000000
C     1.217000000     2.977000000     3.716000000
C     0.039000000     3.755000000     4.018000000
H     0.349000000     4.802000000     4.031000000
H    -0.210000000     3.575000000     5.066000000
C    -1.147000000     3.584000000     3.038000000
C    -1.248000000     4.495000000     1.989000000
H    -0.421000000     5.190000000     1.863000000
C    -2.084000000     2.518000000     3.235000000
C    -3.132000000     2.423000000     2.333000000
H    -3.742000000     1.525000000     2.380000000
C    -3.222000000     3.299000000     1.258000000
O    -4.132000000     2.916000000     0.327000000
C    -3.741000000     2.188000000    -0.864000000
C    -4.715000000     1.117000000    -1.262000000
C    -4.435000000     0.361000000    -2.406000000
H    -3.814000000     0.856000000    -3.148000000
C    -5.643000000     0.660000000    -0.384000000
H    -5.773000000     1.152000000     0.576000000
O    -3.452000000     3.001000000    -1.987000000
H    -2.782000000     1.668000000    -0.718000000
C    -2.305000000     4.345000000     1.064000000
C    -2.315000000     5.163000000    -0.229000000
H    -1.909000000     6.176000000    -0.189000000
H    -3.329000000     5.354000000    -0.585000000
C    -1.557000000     4.435000000    -1.343000000
C    -0.239000000     4.857000000    -1.639000000
H     0.282000000     5.561000000    -0.995000000
C    -2.221000000     3.495000000    -2.151000000
C    -1.553000000     2.927000000    -3.139000000
H    -2.036000000     2.272000000    -3.860000000
C    -0.184000000     3.128000000    -3.371000000
O     0.504000000     2.350000000    -4.291000000
C     1.250000000     1.185000000    -3.857000000
C     1.136000000    -0.083000000    -4.667000000
C     0.060000000    -0.195000000    -5.558000000
H    -0.583000000     0.677000000    -5.649000000
C     1.901000000    -1.200000000    -4.383000000
H     2.755000000    -1.166000000    -3.712000000
O     2.623000000     1.635000000    -3.742000000
H     0.788000000     0.908000000    -2.898000000
C     0.414000000     4.168000000    -2.652000000
C     1.937000000     4.352000000    -2.755000000
H     2.224000000     5.378000000    -2.516000000
H     2.046000000     4.241000000    -3.836000000
C     2.650000000     3.265000000    -1.947000000
C     2.983000000     2.005000000    -2.439000000
C     3.904000000     1.239000000    -1.735000000
H     4.287000000     0.307000000    -2.143000000
C     4.290000000     1.638000000    -0.450000000
O     4.972000000     0.758000000     0.315000000
C     4.152000000    -0.035000000     1.224000000
H     3.089000000     0.043000000     0.955000000
C     4.448000000    -1.551000000     1.237000000
C     4.258000000    -2.356000000     2.398000000
H     4.013000000    -1.845000000     3.326000000
C     4.976000000    -2.085000000     0.083000000
H     5.000000000    -1.453000000    -0.801000000
C     5.188000000    -3.504000000     0.030000000
O     5.656000000    -4.094000000    -1.157000000
C     4.804000000    -4.296000000     1.084000000
H     4.973000000    -5.370000000     1.057000000
C     4.324000000    -3.731000000     2.246000000
O     3.951000000    -4.543000000     3.261000000
C     3.357000000    -4.106000000     4.387000000
C     1.945000000    -4.207000000     4.555000000
H     1.324000000    -4.598000000     3.753000000
C     4.145000000    -3.681000000     5.453000000
H     5.224000000    -3.587000000     5.362000000
C     3.535000000    -3.350000000     6.654000000
H     4.219000000    -3.006000000     7.426000000
C     2.179000000    -3.482000000     6.880000000
H     1.678000000    -3.266000000     7.820000000
C     1.382000000    -3.887000000     5.736000000
O    -0.030000000    -3.942000000     5.853000000
C    -0.831000000    -2.976000000     5.236000000
C    -2.003000000    -3.431000000     4.692000000
H    -2.388000000    -4.430000000     4.877000000
C    -2.763000000    -2.520000000     3.878000000
O    -3.906000000    -3.005000000     3.232000000
C    -5.128000000    -2.393000000     3.130000000
C    -5.650000000    -2.377000000     1.876000000
H    -5.208000000    -3.027000000     1.125000000
C    -5.731000000    -1.703000000     4.182000000
H    -5.323000000    -1.618000000     5.187000000
C    -6.892000000    -0.999000000     3.984000000
H    -7.304000000    -0.414000000     4.802000000
C    -7.337000000    -0.855000000     2.634000000
H    -8.160000000    -0.170000000     2.446000000
C    -6.777000000    -1.520000000     1.560000000
O    -7.144000000    -1.213000000     0.286000000
C    -6.243000000    -0.616000000    -0.566000000
C    -5.994000000    -1.380000000    -1.701000000
H    -6.351000000    -2.404000000    -1.775000000
C    -5.002000000    -0.864000000    -2.606000000
O    -4.705000000    -1.655000000    -3.674000000
C    -4.301000000    -1.196000000    -4.880000000
C    -2.991000000    -1.492000000    -5.299000000
H    -2.335000000    -2.161000000    -4.748000000
C    -5.154000000    -0.420000000    -5.634000000
H    -6.190000000    -0.314000000    -5.324000000
C    -4.665000000    -0.050000000    -6.925000000
H    -5.313000000     0.461000000    -7.633000000
C    -3.424000000    -0.463000000    -7.416000000
H    -3.093000000    -0.229000000    -8.424000000
C    -2.600000000    -1.158000000    -6.547000000
O    -1.373000000    -1.508000000    -6.967000000
C    -0.200000000    -1.396000000    -6.184000000
C     0.619000000    -2.482000000    -5.939000000
H     0.329000000    -3.435000000    -6.373000000
C     1.781000000    -2.357000000    -5.172000000
O     2.545000000    -3.449000000    -4.787000000
C     3.839000000    -3.308000000    -4.226000000
C     4.774000000    -2.580000000    -4.925000000
H     4.509000000    -2.057000000    -5.841000000
C     6.016000000    -2.284000000    -4.376000000
H     6.723000000    -1.634000000    -4.884000000
C     6.315000000    -2.877000000    -3.139000000
H     7.316000000    -2.867000000    -2.714000000
C     5.386000000    -3.579000000    -2.404000000
C     4.149000000    -3.736000000    -2.965000000
H     3.418000000    -4.159000000    -2.281000000
C    -1.498000000    -2.624000000    -1.268000000
H    -2.383000000    -2.918000000    -1.827000000
C    -1.376000000    -1.275000000    -1.008000000
H    -2.175000000    -0.613000000    -1.330000000
C    -0.332000000    -0.759000000    -0.233000000
C    -0.348000000     0.671000000     0.271000000
H     0.393000000     0.681000000     1.073000000
H    -0.050000000     1.467000000    -0.415000000
H    -1.338000000     0.844000000     0.699000000
C     0.681000000    -1.662000000     0.202000000
H     1.447000000    -1.397000000     0.926000000
C     0.601000000    -3.037000000    -0.213000000
H     1.273000000    -3.840000000     0.078000000
C    -0.460000000    -3.511000000    -0.980000000
C    -0.529000000    -4.974000000    -1.346000000
O     0.368000000    -5.770000000    -1.079000000
O    -1.528000000    -5.363000000    -1.909000000
O     3.832000000    -7.677000000    -3.230000000
H     3.581000000    -8.592000000    -3.101000000
H     3.003000000    -7.218000000    -3.363000000
O     1.656000000    -6.167000000    -3.334000000
H     1.445000000    -5.634000000    -4.101000000
H     1.080000000    -5.835000000    -2.645000000
O    -5.844000000    -6.021000000    -1.941000000
H    -5.773000000    -5.223000000    -2.464000000
H    -4.991000000    -6.106000000    -1.516000000
O    -2.243000000    -5.473000000    -4.444000000
H    -2.019000000    -6.396000000    -4.563000000
H    -2.086000000    -5.306000000    -3.515000000
O    -3.499000000    -8.158000000    -3.379000000
H    -3.832000000    -7.897000000    -2.521000000
H    -2.575000000    -8.354000000    -3.228000000
O     4.070000000    -9.154000000     1.315000000
H     4.033000000    -9.873000000     0.684000000
H     3.363000000    -8.565000000     1.049000000
O    -1.412000000    -9.825000000     1.438000000
H    -0.983000000    -8.980000000     1.566000000
H    -0.694000000   -10.438000000     1.284000000
O     2.870000000    -6.081000000    -6.696000000
H     3.386000000    -6.848000000    -6.942000000
H     1.989000000    -6.423000000    -6.544000000
O    -1.076000000   -10.655000000    -4.005000000
H    -0.897000000    -9.791000000    -3.632000000
H    -0.234000000   -11.110000000    -3.971000000
O    -5.337000000    -6.161000000     1.597000000
H    -5.457000000    -7.079000000     1.842000000
H    -6.225000000    -5.808000000     1.549000000
O    -5.389000000    -4.217000000    -3.929000000
H    -4.571000000    -4.569000000    -4.281000000
H    -5.173000000    -3.320000000    -3.672000000
O     2.223000000    -9.554000000    -2.257000000
H     1.592000000    -9.572000000    -1.538000000
H     1.788000000   -10.022000000    -2.970000000
O    -0.567000000    -7.059000000     1.050000000
H    -0.311000000    -6.607000000     0.246000000
H    -0.983000000    -6.382000000     1.584000000
O     2.021000000    -7.621000000     0.611000000
H     1.776000000    -6.916000000     0.011000000
H     1.188000000    -8.007000000     0.881000000
O    -2.997000000    -4.715000000    -6.774000000
H    -2.868000000    -4.688000000    -5.826000000
H    -2.417000000    -5.414000000    -7.075000000
O    -0.599000000    -7.962000000    -2.855000000
H     0.294000000    -7.796000000    -3.156000000
H    -0.846000000    -7.166000000    -2.385000000
O    -2.464000000    -5.113000000     1.754000000
H    -3.392000000    -5.350000000     1.750000000
H    -2.458000000    -4.167000000     1.609000000
O    -2.613000000    -7.362000000     4.186000000
H    -3.257000000    -6.890000000     4.713000000
H    -2.532000000    -6.843000000     3.386000000
O    -3.356000000    -6.952000000    -0.354000000
H    -3.333000000    -6.764000000     0.584000000
H    -2.572000000    -6.528000000    -0.703000000
