218
-1464.70827
C    -1.554000000    -1.218000000    -4.556000000
H    -1.436000000    -0.143000000    -4.661000000
C    -2.341000000    -1.674000000    -3.492000000
C    -2.442000000    -3.036000000    -3.303000000
H    -3.091000000    -3.408000000    -2.515000000
C    -3.107000000    -0.712000000    -2.607000000
O    -3.289000000     0.541000000    -3.239000000
H    -2.418000000    -0.633000000    -1.754000000
O    -4.305000000    -1.150000000    -2.080000000
C    -4.508000000    -0.940000000    -0.736000000
C    -4.147000000    -1.995000000     0.147000000
H    -3.886000000    -2.994000000    -0.194000000
C    -4.135000000    -1.750000000     1.504000000
O    -3.628000000    -2.784000000     2.250000000
C    -4.363000000    -0.470000000     2.005000000
C    -4.363000000    -0.186000000     3.476000000
H    -5.057000000     0.617000000     3.731000000
C    -2.935000000     0.311000000     3.879000000
C    -2.588000000     1.692000000     3.943000000
H    -3.348000000     2.403000000     3.630000000
H    -4.742000000    -1.008000000     4.087000000
C    -4.730000000     0.563000000     1.137000000
H    -4.865000000     1.525000000     1.624000000
C    -4.903000000     0.327000000    -0.223000000
C    -5.187000000     1.536000000    -1.078000000
H    -5.954000000     2.193000000    -0.664000000
H    -5.671000000     1.187000000    -1.993000000
C    -3.867000000     2.252000000    -1.498000000
C    -3.439000000     3.401000000    -0.843000000
H    -4.019000000     3.805000000    -0.018000000
C    -3.105000000     1.757000000    -2.603000000
C    -2.132000000     2.531000000    -3.129000000
H    -1.613000000     2.270000000    -4.048000000
C    -1.691000000     3.724000000    -2.444000000
O    -0.483000000     4.333000000    -2.811000000
C     0.691000000     3.957000000    -2.071000000
C     1.860000000     3.660000000    -2.980000000
C     3.128000000     3.740000000    -2.453000000
H     3.284000000     4.152000000    -1.459000000
C     1.690000000     2.981000000    -4.164000000
H     0.688000000     2.769000000    -4.528000000
O     0.925000000     5.017000000    -1.046000000
H     0.509000000     3.002000000    -1.555000000
C    -2.381000000     4.154000000    -1.311000000
C    -1.889000000     5.369000000    -0.540000000
H    -2.776000000     5.895000000    -0.180000000
H    -1.399000000     6.125000000    -1.157000000
C    -0.885000000     4.916000000     0.542000000
C    -1.275000000     4.635000000     1.816000000
H    -2.329000000     4.744000000     2.059000000
C     0.486000000     4.825000000     0.204000000
C     1.385000000     4.278000000     1.053000000
H     2.426000000     4.171000000     0.757000000
C     0.952000000     3.950000000     2.321000000
O     1.865000000     3.234000000     3.123000000
C     1.726000000     1.799000000     3.323000000
C     3.140000000     1.245000000     3.381000000
C     4.137000000     1.706000000     2.507000000
H     3.850000000     2.515000000     1.841000000
C     3.414000000     0.170000000     4.218000000
H     2.581000000    -0.225000000     4.793000000
O     0.926000000     1.488000000     4.491000000
H     1.261000000     1.493000000     2.374000000
C    -0.356000000     4.066000000     2.730000000
C    -0.902000000     3.565000000     4.086000000
H    -1.838000000     4.099000000     4.267000000
H    -0.284000000     3.898000000     4.923000000
C    -1.241000000     2.140000000     4.114000000
C    -0.319000000     1.117000000     4.292000000
C    -0.693000000    -0.247000000     4.324000000
H     0.135000000    -0.946000000     4.405000000
C    -1.990000000    -0.676000000     4.128000000
O    -2.294000000    -1.991000000     4.090000000
C    -2.281000000    -2.577000000     2.750000000
H    -1.840000000    -1.936000000     1.972000000
C    -1.453000000    -3.832000000     2.607000000
C    -1.760000000    -4.830000000     1.647000000
H    -2.774000000    -4.844000000     1.257000000
C    -0.281000000    -3.961000000     3.360000000
H    -0.019000000    -3.283000000     4.168000000
C     0.614000000    -4.975000000     3.002000000
O     1.827000000    -5.139000000     3.686000000
C     0.352000000    -5.886000000     2.011000000
H     0.971000000    -6.742000000     1.753000000
C    -0.890000000    -5.831000000     1.336000000
O    -1.259000000    -6.883000000     0.571000000
C    -2.062000000    -6.897000000    -0.503000000
C    -1.655000000    -6.058000000    -1.553000000
H    -0.774000000    -5.439000000    -1.403000000
C    -3.021000000    -7.845000000    -0.634000000
H    -3.207000000    -8.567000000     0.157000000
C    -3.739000000    -7.877000000    -1.849000000
H    -4.611000000    -8.522000000    -1.909000000
C    -3.408000000    -7.023000000    -2.892000000
H    -3.992000000    -7.058000000    -3.808000000
C    -2.414000000    -6.112000000    -2.816000000
O    -2.018000000    -5.339000000    -3.951000000
C    -1.794000000    -3.945000000    -4.074000000
C    -1.036000000    -3.580000000    -5.157000000
H    -0.591000000    -4.346000000    -5.787000000
C    -0.867000000    -2.186000000    -5.370000000
O    -0.112000000    -1.799000000    -6.413000000
C     0.113000000    -0.496000000    -6.787000000
C     1.305000000     0.152000000    -6.367000000
H     1.975000000    -0.327000000    -5.658000000
C    -0.828000000     0.213000000    -7.586000000
H    -1.768000000    -0.323000000    -7.691000000
C    -0.720000000     1.581000000    -7.814000000
H    -1.383000000     2.133000000    -8.476000000
C     0.399000000     2.189000000    -7.321000000
H     0.403000000     3.271000000    -7.420000000
C     1.405000000     1.512000000    -6.661000000
O     2.513000000     2.145000000    -6.258000000
C     2.765000000     2.700000000    -4.985000000
C     4.061000000     2.954000000    -4.574000000
H     4.837000000     2.662000000    -5.276000000
C     4.308000000     3.431000000    -3.264000000
O     5.545000000     3.205000000    -2.745000000
C     5.801000000     3.464000000    -1.444000000
C     5.795000000     2.262000000    -0.629000000
H     5.502000000     1.292000000    -1.024000000
C     6.171000000     4.688000000    -0.858000000
H     6.138000000     5.571000000    -1.491000000
C     6.514000000     4.852000000     0.491000000
H     6.755000000     5.828000000     0.906000000
C     6.531000000     3.634000000     1.249000000
H     6.792000000     3.564000000     2.302000000
C     6.150000000     2.426000000     0.684000000
O     6.201000000     1.318000000     1.446000000
C     5.341000000     1.047000000     2.480000000
C     5.622000000     0.028000000     3.315000000
H     6.587000000    -0.472000000     3.282000000
C     4.673000000    -0.467000000     4.207000000
O     4.901000000    -1.615000000     5.047000000
C     3.958000000    -2.564000000     5.317000000
C     3.580000000    -2.660000000     6.728000000
H     4.172000000    -2.101000000     7.449000000
C     2.450000000    -3.488000000     6.982000000
H     2.149000000    -3.621000000     8.018000000
C     1.914000000    -4.320000000     6.019000000
H     1.105000000    -4.998000000     6.279000000
C     2.363000000    -4.278000000     4.651000000
C     3.360000000    -3.384000000     4.343000000
H     3.785000000    -3.333000000     3.344000000
C     1.240000000    -2.525000000     0.156000000
H     1.181000000    -3.607000000     0.231000000
C     0.100000000    -1.726000000     0.149000000
H    -0.923000000    -2.091000000     0.103000000
C     0.266000000    -0.310000000     0.260000000
C    -0.862000000     0.649000000     0.502000000
H    -1.620000000     0.925000000    -0.233000000
H    -1.411000000     0.318000000     1.386000000
H    -0.450000000     1.584000000     0.889000000
C     1.561000000     0.204000000     0.371000000
H     1.790000000     1.251000000     0.553000000
C     2.663000000    -0.601000000     0.310000000
H     3.647000000    -0.141000000     0.353000000
C     2.523000000    -2.008000000     0.240000000
C     3.792000000    -2.949000000     0.322000000
O     4.857000000    -2.451000000     0.568000000
O     3.660000000    -4.128000000     0.083000000
O     4.902000000    -4.370000000    -4.334000000
H     5.548000000    -4.532000000    -3.647000000
H     4.075000000    -4.265000000    -3.865000000
O     5.081000000    -7.294000000    -2.758000000
H     5.766000000    -7.947000000    -2.899000000
H     5.522000000    -6.454000000    -2.883000000
O     5.034000000    -7.943000000     0.869000000
H     5.123000000    -8.837000000     0.538000000
H     5.578000000    -7.925000000     1.656000000
O     6.581000000    -4.920000000    -2.204000000
H     7.537000000    -4.965000000    -2.190000000
H     6.323000000    -5.013000000    -1.287000000
O     2.913000000    -0.814000000    -3.417000000
H     3.683000000    -0.794000000    -2.848000000
H     2.281000000    -0.239000000    -2.985000000
O     9.300000000    -5.801000000     1.223000000
H     8.399000000    -5.480000000     1.275000000
H     9.646000000    -5.686000000     2.108000000
O     1.904000000    -5.635000000    -4.612000000
H     2.026000000    -6.411000000    -4.065000000
H     1.896000000    -4.905000000    -3.994000000
O     3.839000000    -2.011000000    -5.546000000
H     4.124000000    -2.902000000    -5.342000000
H     3.572000000    -1.646000000    -4.702000000
O     8.806000000    -1.415000000    -0.516000000
H     9.691000000    -1.196000000    -0.805000000
H     8.286000000    -1.425000000    -1.319000000
O     6.717000000     0.882000000    -3.648000000
H     6.110000000     0.458000000    -3.041000000
H     6.804000000     1.775000000    -3.315000000
O     6.208000000    -4.644000000     3.570000000
H     6.747000000    -4.074000000     3.021000000
H     5.472000000    -4.890000000     3.011000000
O     2.749000000    -6.754000000     0.123000000
H     2.916000000    -5.812000000     0.076000000
H     3.581000000    -7.130000000     0.412000000
O     5.902000000    -5.483000000     0.261000000
H     5.468000000    -6.318000000     0.437000000
H     5.195000000    -4.838000000     0.273000000
O     7.943000000    -2.203000000    -3.086000000
H     8.081000000    -2.080000000    -4.025000000
H     7.928000000    -3.153000000    -2.968000000
O     8.786000000     0.283000000     1.541000000
H     7.854000000     0.498000000     1.569000000
H     8.854000000    -0.405000000     0.878000000
O     2.616000000    -3.960000000    -2.708000000
H     3.064000000    -4.236000000    -1.908000000
H     2.511000000    -3.014000000    -2.609000000
O     2.382000000    -7.320000000    -2.772000000
H     3.331000000    -7.424000000    -2.703000000
H     2.105000000    -7.063000000    -1.892000000
O     7.325000000    -3.203000000     1.592000000
H     6.475000000    -3.084000000     1.169000000
H     7.949000000    -2.786000000     0.997000000
O     5.610000000    -1.192000000    -1.587000000
H     5.297000000    -1.731000000    -0.861000000
H     6.451000000    -1.580000000    -1.829000000
