218
-1473.08527
C    -1.161000000    -1.760000000     4.824000000
H    -2.167000000    -1.427000000     4.580000000
C    -0.196000000    -0.797000000     4.822000000
C     1.107000000    -1.220000000     5.039000000
H     1.893000000    -0.485000000     4.885000000
C    -0.536000000     0.543000000     4.169000000
O    -1.801000000     1.150000000     4.586000000
H    -0.614000000     0.348000000     3.090000000
O     0.533000000     1.484000000     4.531000000
C     0.936000000     2.314000000     3.538000000
C     2.094000000     1.944000000     2.905000000
H     2.541000000     1.001000000     3.209000000
C     2.662000000     2.790000000     1.932000000
O     3.886000000     2.363000000     1.522000000
C     1.986000000     3.976000000     1.585000000
C     2.509000000     4.889000000     0.501000000
H     2.058000000     5.841000000     0.787000000
C     2.194000000     4.351000000    -0.868000000
C     1.024000000     4.770000000    -1.514000000
H     0.383000000     5.499000000    -1.026000000
H     3.577000000     4.965000000     0.716000000
C     0.742000000     4.288000000     2.167000000
H     0.226000000     5.201000000     1.881000000
C     0.224000000     3.477000000     3.165000000
C    -1.014000000     3.870000000     3.891000000
H    -1.219000000     4.942000000     3.892000000
H    -0.998000000     3.512000000     4.923000000
C    -2.184000000     3.086000000     3.220000000
C    -2.854000000     3.662000000     2.119000000
H    -2.661000000     4.644000000     1.695000000
C    -2.498000000     1.741000000     3.624000000
C    -3.487000000     1.033000000     2.879000000
H    -3.770000000     0.003000000     3.082000000
C    -4.120000000     1.639000000     1.749000000
O    -5.003000000     0.905000000     0.938000000
C    -4.474000000     0.388000000    -0.317000000
C    -4.795000000    -1.093000000    -0.418000000
C    -4.870000000    -1.652000000    -1.765000000
H    -4.757000000    -1.036000000    -2.654000000
C    -4.888000000    -1.892000000     0.712000000
H    -4.686000000    -1.572000000     1.731000000
O    -4.844000000     1.235000000    -1.469000000
H    -3.381000000     0.412000000    -0.202000000
C    -3.825000000     2.939000000     1.393000000
C    -4.350000000     3.524000000     0.065000000
H    -4.365000000     4.616000000     0.068000000
H    -5.385000000     3.325000000    -0.220000000
C    -3.563000000     3.151000000    -1.222000000
C    -2.514000000     3.914000000    -1.643000000
H    -2.180000000     4.799000000    -1.107000000
C    -3.910000000     1.998000000    -1.972000000
C    -3.035000000     1.537000000    -2.976000000
H    -3.095000000     0.530000000    -3.381000000
C    -2.093000000     2.360000000    -3.396000000
O    -1.195000000     1.816000000    -4.330000000
C     0.093000000     1.387000000    -3.910000000
C     0.375000000     0.068000000    -4.492000000
C    -0.568000000    -0.983000000    -4.483000000
H    -1.589000000    -0.763000000    -4.184000000
C     1.680000000    -0.211000000    -4.951000000
H     2.483000000     0.521000000    -4.941000000
O     1.025000000     2.425000000    -4.295000000
H     0.045000000     1.283000000    -2.816000000
C    -1.771000000     3.535000000    -2.756000000
C    -0.678000000     4.505000000    -3.242000000
H    -0.950000000     5.517000000    -2.935000000
H    -0.686000000     4.531000000    -4.334000000
C     0.611000000     4.096000000    -2.679000000
C     1.412000000     3.135000000    -3.196000000
C     2.594000000     2.611000000    -2.570000000
H     3.189000000     1.784000000    -2.948000000
C     2.956000000     3.273000000    -1.418000000
O     4.116000000     2.825000000    -0.847000000
C     3.889000000     1.764000000     0.242000000
H     2.903000000     1.317000000     0.047000000
C     4.863000000     0.643000000     0.253000000
C     5.248000000     0.036000000     1.507000000
H     5.046000000     0.491000000     2.474000000
C     5.122000000    -0.007000000    -0.939000000
H     4.704000000     0.373000000    -1.868000000
C     5.864000000    -1.207000000    -1.007000000
O     6.200000000    -1.685000000    -2.175000000
C     6.118000000    -1.802000000     0.182000000
H     6.616000000    -2.766000000     0.113000000
C     5.865000000    -1.197000000     1.384000000
O     6.280000000    -1.859000000     2.532000000
C     5.630000000    -1.719000000     3.713000000
C     4.362000000    -2.307000000     3.932000000
H     3.860000000    -2.849000000     3.134000000
C     6.282000000    -1.094000000     4.761000000
H     7.209000000    -0.566000000     4.554000000
C     5.684000000    -1.036000000     6.035000000
H     6.230000000    -0.554000000     6.842000000
C     4.473000000    -1.665000000     6.263000000
H     4.084000000    -1.703000000     7.277000000
C     3.807000000    -2.299000000     5.202000000
O     2.639000000    -3.073000000     5.431000000
C     1.359000000    -2.599000000     5.362000000
C     0.372000000    -3.546000000     5.435000000
H     0.672000000    -4.584000000     5.550000000
C    -0.950000000    -3.103000000     5.191000000
O    -1.970000000    -4.029000000     5.184000000
C    -3.295000000    -3.804000000     4.687000000
C    -3.536000000    -4.021000000     3.328000000
H    -2.762000000    -4.245000000     2.599000000
C    -4.353000000    -3.422000000     5.547000000
H    -4.196000000    -3.174000000     6.594000000
C    -5.642000000    -3.184000000     5.074000000
H    -6.463000000    -2.854000000     5.706000000
C    -5.909000000    -3.487000000     3.744000000
H    -6.895000000    -3.374000000     3.301000000
C    -4.887000000    -3.909000000     2.952000000
O    -5.249000000    -4.077000000     1.633000000
C    -5.158000000    -3.218000000     0.520000000
C    -5.406000000    -3.749000000    -0.758000000
H    -5.640000000    -4.808000000    -0.831000000
C    -5.278000000    -2.979000000    -1.839000000
O    -5.466000000    -3.541000000    -3.095000000
C    -4.539000000    -3.300000000    -4.138000000
C    -3.200000000    -3.287000000    -3.906000000
H    -2.777000000    -3.436000000    -2.916000000
C    -5.060000000    -3.254000000    -5.433000000
H    -6.123000000    -3.376000000    -5.624000000
C    -4.215000000    -3.383000000    -6.534000000
H    -4.673000000    -3.469000000    -7.516000000
C    -2.878000000    -3.299000000    -6.283000000
H    -2.220000000    -3.328000000    -7.147000000
C    -2.402000000    -3.278000000    -4.994000000
O    -1.074000000    -3.304000000    -4.810000000
C    -0.176000000    -2.279000000    -4.924000000
C     1.114000000    -2.499000000    -5.386000000
H     1.358000000    -3.459000000    -5.834000000
C     2.051000000    -1.437000000    -5.385000000
O     3.286000000    -1.619000000    -5.928000000
C     4.434000000    -1.143000000    -5.361000000
C     5.151000000    -0.088000000    -5.917000000
H     4.797000000     0.354000000    -6.845000000
C     6.304000000     0.385000000    -5.255000000
H     6.923000000     1.186000000    -5.651000000
C     6.723000000    -0.251000000    -4.099000000
H     7.711000000    -0.131000000    -3.661000000
C     5.861000000    -1.168000000    -3.440000000
C     4.695000000    -1.604000000    -4.109000000
H     4.128000000    -2.422000000    -3.672000000
C    -0.828000000    -2.477000000    -0.570000000
H    -1.401000000    -3.140000000    -1.214000000
C    -1.000000000    -1.122000000    -0.779000000
H    -1.524000000    -0.724000000    -1.644000000
C    -0.401000000    -0.312000000     0.184000000
C    -0.656000000     1.199000000     0.093000000
H    -1.004000000     1.489000000    -0.900000000
H    -1.313000000     1.399000000     0.943000000
H     0.260000000     1.761000000     0.289000000
C     0.579000000    -0.818000000     1.058000000
H     1.207000000    -0.158000000     1.651000000
C     0.680000000    -2.200000000     1.286000000
H     1.335000000    -2.546000000     2.082000000
C    -0.105000000    -3.052000000     0.456000000
C     0.077000000    -4.547000000     0.605000000
O     0.868000000    -4.991000000     1.382000000
O    -0.475000000    -5.303000000    -0.224000000
O    -2.735000000    -7.516000000     4.361000000
H    -3.653000000    -7.270000000     4.479000000
H    -2.741000000    -8.109000000     3.609000000
O     2.169000000    -7.354000000     4.621000000
H     2.128000000    -6.914000000     5.470000000
H     1.320000000    -7.173000000     4.217000000
O    -2.857000000    -7.136000000    -3.051000000
H    -2.214000000    -6.913000000    -3.724000000
H    -2.434000000    -7.821000000    -2.533000000
O     3.901000000    -8.074000000     2.029000000
H     3.722000000    -7.249000000     1.578000000
H     3.333000000    -8.054000000     2.799000000
O    -2.961000000    -6.115000000    -0.359000000
H    -2.075000000    -5.788000000    -0.200000000
H    -2.919000000    -6.505000000    -1.232000000
O     1.769000000    -6.460000000    -1.188000000
H     2.236000000    -5.627000000    -1.260000000
H     0.947000000    -6.236000000    -0.751000000
O     6.104000000    -5.130000000    -0.802000000
H     6.249000000    -4.905000000    -1.720000000
H     5.161000000    -5.025000000    -0.675000000
O    -2.150000000    -9.630000000     2.306000000
H    -2.370000000   -10.287000000     1.645000000
H    -1.377000000    -9.187000000     1.956000000
O     1.906000000    -1.887000000    -1.761000000
H     1.037000000    -1.685000000    -1.414000000
H     1.740000000    -2.495000000    -2.481000000
O     0.684000000    -8.788000000    -3.732000000
H     1.537000000    -8.374000000    -3.601000000
H     0.359000000    -8.954000000    -2.848000000
O    -0.012000000    -5.696000000    -3.092000000
H     0.581000000    -6.359000000    -2.739000000
H    -0.524000000    -5.407000000    -2.336000000
O     0.266000000    -9.336000000    -1.077000000
H     0.291000000    -9.027000000    -0.171000000
H    -0.666000000    -9.442000000    -1.268000000
O     3.397000000    -3.905000000    -1.092000000
H     2.946000000    -3.126000000    -1.417000000
H     3.440000000    -3.779000000    -0.144000000
O    -0.205000000    -7.926000000     1.408000000
H    -0.257000000    -7.468000000     2.248000000
H    -0.391000000    -7.251000000     0.756000000
O    -4.817000000    -8.142000000     0.424000000
H    -4.370000000    -8.982000000     0.524000000
H    -4.111000000    -7.507000000     0.305000000
O     3.090000000    -7.560000000    -3.335000000
H     3.488000000    -8.430000000    -3.300000000
H     2.905000000    -7.345000000    -2.421000000
O     3.608000000    -5.164000000     1.526000000
H     2.659000000    -5.041000000     1.515000000
H     3.821000000    -5.310000000     2.448000000
O    -0.035000000    -6.254000000     3.535000000
H    -0.906000000    -5.938000000     3.778000000
H     0.191000000    -5.752000000     2.752000000
O     1.896000000    -5.894000000    -5.024000000
H     1.190000000    -5.464000000    -4.541000000
H     2.442000000    -6.292000000    -4.346000000
