218
-1454.61670
C    -1.114000000    -1.453000000     4.659000000
H    -2.122000000    -1.218000000     4.326000000
C    -0.120000000    -0.450000000     4.753000000
C     1.131000000    -0.861000000     5.169000000
H     2.034000000    -0.261000000     5.086000000
C    -0.331000000     1.008000000     4.234000000
O    -1.676000000     1.466000000     4.442000000
H    -0.277000000     0.990000000     3.136000000
O     0.615000000     1.965000000     4.692000000
C     1.213000000     2.757000000     3.708000000
C     2.472000000     2.436000000     3.306000000
H     3.112000000     1.694000000     3.777000000
C     2.957000000     3.023000000     2.148000000
O     4.122000000     2.429000000     1.607000000
C     2.258000000     4.088000000     1.532000000
C     2.736000000     4.802000000     0.284000000
H     2.533000000     5.875000000     0.294000000
C     2.334000000     4.112000000    -0.991000000
C     1.259000000     4.667000000    -1.626000000
H     0.863000000     5.642000000    -1.352000000
H     3.827000000     4.835000000     0.322000000
C     1.030000000     4.507000000     1.980000000
H     0.529000000     5.354000000     1.519000000
C     0.511000000     3.835000000     3.124000000
C    -0.941000000     4.200000000     3.615000000
H    -1.125000000     5.229000000     3.297000000
H    -0.909000000     4.106000000     4.702000000
C    -2.093000000     3.345000000     2.980000000
C    -2.701000000     3.909000000     1.892000000
H    -2.489000000     4.943000000     1.634000000
C    -2.342000000     2.014000000     3.365000000
C    -3.209000000     1.243000000     2.630000000
H    -3.351000000     0.171000000     2.737000000
C    -3.988000000     1.858000000     1.629000000
O    -4.829000000     1.030000000     0.937000000
C    -4.301000000     0.461000000    -0.366000000
C    -4.546000000    -0.993000000    -0.381000000
C    -4.114000000    -1.819000000    -1.470000000
H    -3.514000000    -1.386000000    -2.267000000
C    -5.165000000    -1.593000000     0.756000000
H    -5.559000000    -1.045000000     1.609000000
O    -4.774000000     1.254000000    -1.455000000
H    -3.224000000     0.611000000    -0.200000000
C    -3.728000000     3.204000000     1.187000000
C    -4.291000000     3.826000000    -0.086000000
H    -4.277000000     4.917000000    -0.040000000
H    -5.367000000     3.639000000    -0.108000000
C    -3.624000000     3.375000000    -1.381000000
C    -2.547000000     4.181000000    -1.875000000
H    -2.384000000     5.165000000    -1.444000000
C    -3.897000000     2.186000000    -2.041000000
C    -3.212000000     1.773000000    -3.159000000
H    -3.365000000     0.807000000    -3.634000000
C    -2.143000000     2.552000000    -3.588000000
O    -1.334000000     1.948000000    -4.600000000
C    -0.101000000     1.286000000    -4.324000000
C     0.109000000     0.203000000    -5.316000000
C    -0.944000000    -0.767000000    -5.459000000
H    -1.959000000    -0.563000000    -5.129000000
C     1.431000000    -0.063000000    -5.773000000
H     2.253000000     0.640000000    -5.669000000
O     0.921000000     2.264000000    -4.343000000
H    -0.062000000     0.849000000    -3.315000000
C    -1.839000000     3.812000000    -3.054000000
C    -0.587000000     4.567000000    -3.409000000
H    -0.522000000     5.642000000    -3.227000000
H    -0.444000000     4.436000000    -4.483000000
C     0.678000000     3.979000000    -2.732000000
C     1.395000000     2.925000000    -3.237000000
C     2.359000000     2.292000000    -2.507000000
H     2.744000000     1.304000000    -2.747000000
C     2.896000000     2.896000000    -1.387000000
O     4.058000000     2.463000000    -0.745000000
C     3.883000000     1.662000000     0.424000000
H     2.833000000     1.342000000     0.494000000
C     4.608000000     0.337000000     0.427000000
C     4.945000000    -0.323000000     1.624000000
H     4.767000000     0.166000000     2.578000000
C     4.801000000    -0.321000000    -0.789000000
H     4.527000000     0.268000000    -1.660000000
C     5.264000000    -1.602000000    -0.911000000
O     5.425000000    -2.258000000    -2.140000000
C     5.584000000    -2.256000000     0.313000000
H     5.941000000    -3.279000000     0.221000000
C     5.447000000    -1.593000000     1.524000000
O     5.727000000    -2.391000000     2.596000000
C     5.463000000    -2.134000000     3.930000000
C     4.188000000    -2.282000000     4.367000000
H     3.365000000    -2.204000000     3.661000000
C     6.521000000    -1.923000000     4.861000000
H     7.532000000    -1.860000000     4.467000000
C     6.262000000    -2.014000000     6.209000000
H     7.032000000    -1.879000000     6.964000000
C     4.978000000    -2.160000000     6.661000000
H     4.716000000    -2.123000000     7.715000000
C     3.887000000    -2.197000000     5.721000000
O     2.607000000    -2.400000000     6.229000000
C     1.408000000    -2.125000000     5.640000000
C     0.406000000    -3.064000000     5.533000000
H     0.587000000    -4.109000000     5.769000000
C    -0.840000000    -2.758000000     5.070000000
O    -1.804000000    -3.777000000     4.808000000
C    -3.142000000    -3.571000000     4.626000000
C    -3.747000000    -3.688000000     3.367000000
H    -3.042000000    -3.684000000     2.539000000
C    -4.008000000    -3.736000000     5.706000000
H    -3.567000000    -3.874000000     6.690000000
C    -5.408000000    -3.624000000     5.636000000
H    -6.113000000    -3.711000000     6.459000000
C    -5.892000000    -3.454000000     4.353000000
H    -6.977000000    -3.407000000     4.311000000
C    -5.131000000    -3.563000000     3.182000000
O    -5.731000000    -3.570000000     1.916000000
C    -5.188000000    -2.938000000     0.825000000
C    -4.705000000    -3.792000000    -0.214000000
H    -4.735000000    -4.867000000    -0.060000000
C    -4.232000000    -3.232000000    -1.359000000
O    -3.584000000    -4.046000000    -2.283000000
C    -3.677000000    -3.871000000    -3.629000000
C    -2.531000000    -3.558000000    -4.285000000
H    -1.585000000    -3.614000000    -3.751000000
C    -4.941000000    -3.840000000    -4.156000000
H    -5.892000000    -4.096000000    -3.697000000
C    -5.065000000    -3.471000000    -5.472000000
H    -6.051000000    -3.480000000    -5.929000000
C    -3.959000000    -3.246000000    -6.257000000
H    -4.056000000    -2.900000000    -7.283000000
C    -2.717000000    -3.208000000    -5.659000000
O    -1.615000000    -2.875000000    -6.448000000
C    -0.640000000    -1.960000000    -6.145000000
C     0.663000000    -2.226000000    -6.561000000
H     0.959000000    -3.166000000    -7.019000000
C     1.698000000    -1.326000000    -6.244000000
O     3.037000000    -1.604000000    -6.394000000
C     3.970000000    -1.238000000    -5.424000000
C     4.815000000    -0.228000000    -5.785000000
H     4.735000000     0.324000000    -6.718000000
C     5.968000000     0.020000000    -5.081000000
H     6.725000000     0.738000000    -5.385000000
C     6.085000000    -0.650000000    -3.799000000
H     6.912000000    -0.381000000    -3.148000000
C     5.236000000    -1.640000000    -3.377000000
C     4.285000000    -2.031000000    -4.298000000
H     3.831000000    -3.018000000    -4.247000000
C    -0.164000000    -1.911000000    -0.785000000
H    -0.392000000    -2.622000000    -1.575000000
C    -0.473000000    -0.551000000    -0.918000000
H    -1.156000000    -0.067000000    -1.612000000
C    -0.109000000     0.376000000     0.095000000
C    -0.355000000     1.842000000    -0.040000000
H     0.467000000     2.469000000     0.312000000
H    -0.751000000     2.155000000    -1.008000000
H    -1.199000000     2.053000000     0.619000000
C     0.679000000    -0.035000000     1.121000000
H     1.187000000     0.644000000     1.801000000
C     1.079000000    -1.343000000     1.243000000
H     1.734000000    -1.677000000     2.044000000
C     0.721000000    -2.283000000     0.279000000
C     1.067000000    -3.759000000     0.497000000
O     1.949000000    -4.068000000     1.308000000
O     0.577000000    -4.733000000    -0.108000000
O     5.174000000    -7.297000000     3.994000000
H     5.824000000    -6.633000000     3.763000000
H     4.494000000    -7.209000000     3.327000000
O     2.998000000    -5.666000000     4.960000000
H     3.350000000    -4.933000000     5.464000000
H     3.765000000    -6.069000000     4.553000000
O     2.299000000    -6.970000000    -0.562000000
H     1.776000000    -7.548000000    -1.119000000
H     1.677000000    -6.313000000    -0.248000000
O     1.379000000    -8.441000000     4.174000000
H     1.850000000    -8.757000000     3.403000000
H     1.131000000    -7.543000000     3.952000000
O    -0.453000000    -6.611000000     1.243000000
H    -0.165000000    -5.897000000     0.674000000
H    -0.142000000    -6.365000000     2.113000000
O    -3.491000000    -6.291000000     1.830000000
H    -3.287000000    -6.064000000     0.923000000
H    -2.669000000    -6.634000000     2.182000000
O     3.574000000    -4.720000000    -1.329000000
H     3.249000000    -5.501000000    -0.882000000
H     3.073000000    -3.999000000    -0.946000000
O     4.639000000    -9.115000000     0.302000000
H     4.590000000    -9.251000000    -0.644000000
H     4.186000000    -8.284000000     0.448000000
O    -1.614000000    -6.552000000    -4.937000000
H    -2.567000000    -6.591000000    -5.018000000
H    -1.462000000    -6.159000000    -4.077000000
O    -1.606000000    -9.192000000     1.194000000
H    -1.808000000    -9.153000000     0.259000000
H    -1.062000000    -8.420000000     1.353000000
O    -3.128000000    -6.504000000    -1.183000000
H    -2.821000000    -5.698000000    -1.599000000
H    -3.966000000    -6.688000000    -1.607000000
O    -1.935000000    -8.897000000    -1.412000000
H    -2.203000000    -9.125000000    -2.302000000
H    -2.313000000    -8.031000000    -1.262000000
O     3.678000000    -5.600000000    -4.102000000
H     3.446000000    -5.098000000    -3.321000000
H     4.635000000    -5.581000000    -4.124000000
O     6.172000000    -5.136000000    -2.206000000
H     5.262000000    -5.196000000    -1.916000000
H     6.566000000    -4.483000000    -1.628000000
O     3.528000000    -6.244000000     1.941000000
H     3.141000000    -5.371000000     1.887000000
H     3.162000000    -6.715000000     1.192000000
O     0.978000000    -8.453000000    -2.336000000
H     0.318000000    -8.338000000    -1.652000000
H     0.517000000    -8.911000000    -3.039000000
O     0.769000000    -5.569000000     3.510000000
H     1.011000000    -5.007000000     2.774000000
H     1.530000000    -5.544000000     4.090000000
O    -2.323000000    -6.881000000     5.116000000
H    -3.257000000    -7.058000000     5.004000000
H    -2.260000000    -5.926000000     5.126000000
O    -0.486000000    -5.637000000    -2.458000000
H     0.347000000    -5.917000000    -2.837000000
H    -0.238000000    -5.071000000    -1.727000000
