218
-1446.76795
C    -0.748000000    -1.671000000     4.052000000
H    -1.641000000    -1.363000000     3.514000000
C     0.128000000    -0.659000000     4.446000000
C     1.342000000    -1.014000000     5.003000000
H     2.106000000    -0.261000000     5.176000000
C    -0.058000000     0.809000000     4.076000000
O    -1.377000000     1.439000000     4.501000000
H     0.007000000     0.857000000     2.979000000
O     1.102000000     1.634000000     4.432000000
C     1.588000000     2.455000000     3.478000000
C     2.748000000     2.095000000     2.800000000
H     3.235000000     1.172000000     3.103000000
C     3.235000000     2.767000000     1.671000000
O     4.352000000     2.234000000     1.044000000
C     2.541000000     3.896000000     1.270000000
C     3.020000000     4.721000000     0.052000000
H     2.674000000     5.755000000     0.106000000
C     2.538000000     4.097000000    -1.233000000
C     1.323000000     4.542000000    -1.691000000
H     0.725000000     5.181000000    -1.047000000
H     4.099000000     4.844000000     0.168000000
C     1.446000000     4.347000000     2.035000000
H     0.954000000     5.262000000     1.717000000
C     0.898000000     3.581000000     3.016000000
C    -0.462000000     4.039000000     3.598000000
H    -0.607000000     5.116000000     3.488000000
H    -0.508000000     3.891000000     4.679000000
C    -1.710000000     3.297000000     3.051000000
C    -2.508000000     3.912000000     2.056000000
H    -2.244000000     4.886000000     1.652000000
C    -2.064000000     2.032000000     3.501000000
C    -3.018000000     1.309000000     2.780000000
H    -3.317000000     0.290000000     3.012000000
C    -3.763000000     1.971000000     1.857000000
O    -4.736000000     1.177000000     1.288000000
C    -4.513000000     0.459000000     0.020000000
C    -4.944000000    -0.948000000     0.079000000
C    -5.262000000    -1.687000000    -1.080000000
H    -5.096000000    -1.194000000    -2.034000000
C    -5.175000000    -1.617000000     1.307000000
H    -5.028000000    -1.175000000     2.290000000
O    -4.885000000     1.247000000    -1.092000000
H    -3.435000000     0.241000000     0.014000000
C    -3.504000000     3.242000000     1.403000000
C    -4.211000000     3.883000000     0.246000000
H    -4.190000000     4.975000000     0.277000000
H    -5.286000000     3.693000000     0.229000000
C    -3.531000000     3.310000000    -0.997000000
C    -2.535000000     4.097000000    -1.600000000
H    -2.372000000     5.123000000    -1.281000000
C    -3.935000000     2.129000000    -1.604000000
C    -3.216000000     1.690000000    -2.708000000
H    -3.590000000     0.771000000    -3.152000000
C    -2.223000000     2.451000000    -3.297000000
O    -1.532000000     1.991000000    -4.433000000
C    -0.288000000     1.381000000    -4.145000000
C    -0.064000000     0.001000000    -4.733000000
C    -1.056000000    -1.011000000    -4.740000000
H    -2.067000000    -0.714000000    -4.478000000
C     1.202000000    -0.389000000    -5.123000000
H     2.033000000     0.312000000    -5.165000000
O     0.897000000     2.249000000    -4.448000000
H    -0.225000000     1.199000000    -3.062000000
C    -1.796000000     3.662000000    -2.683000000
C    -0.615000000     4.430000000    -3.288000000
H    -0.707000000     5.452000000    -2.915000000
H    -0.698000000     4.417000000    -4.377000000
C     0.700000000     3.973000000    -2.820000000
C     1.426000000     3.005000000    -3.508000000
C     2.652000000     2.627000000    -3.041000000
H     3.155000000     1.813000000    -3.557000000
C     3.190000000     3.057000000    -1.895000000
O     4.311000000     2.347000000    -1.366000000
C     4.161000000     1.477000000    -0.193000000
H     3.114000000     1.140000000    -0.225000000
C     4.905000000     0.163000000    -0.191000000
C     5.072000000    -0.516000000     1.039000000
H     4.771000000     0.127000000     1.863000000
C     5.057000000    -0.453000000    -1.407000000
H     4.795000000     0.066000000    -2.325000000
C     5.562000000    -1.768000000    -1.420000000
O     5.812000000    -2.440000000    -2.607000000
C     5.759000000    -2.453000000    -0.201000000
H     6.045000000    -3.497000000    -0.299000000
C     5.531000000    -1.800000000     1.035000000
O     5.612000000    -2.539000000     2.245000000
C     5.363000000    -2.021000000     3.423000000
C     4.171000000    -2.446000000     4.131000000
H     3.413000000    -3.072000000     3.666000000
C     6.282000000    -1.358000000     4.231000000
H     7.215000000    -1.047000000     3.768000000
C     6.103000000    -1.037000000     5.608000000
H     6.836000000    -0.439000000     6.143000000
C     4.917000000    -1.432000000     6.183000000
H     4.635000000    -1.275000000     7.221000000
C     3.921000000    -2.062000000     5.430000000
O     2.800000000    -2.585000000     6.042000000
C     1.586000000    -2.363000000     5.450000000
C     0.600000000    -3.344000000     5.213000000
H     0.751000000    -4.368000000     5.543000000
C    -0.526000000    -3.012000000     4.467000000
O    -1.503000000    -3.982000000     4.269000000
C    -2.830000000    -3.733000000     4.518000000
C    -3.783000000    -3.833000000     3.475000000
H    -3.441000000    -4.317000000     2.563000000
C    -3.294000000    -3.301000000     5.793000000
H    -2.650000000    -3.180000000     6.661000000
C    -4.633000000    -2.983000000     5.977000000
H    -4.910000000    -2.608000000     6.959000000
C    -5.505000000    -2.981000000     4.934000000
H    -6.523000000    -2.616000000     5.044000000
C    -5.072000000    -3.462000000     3.638000000
O    -5.863000000    -3.545000000     2.545000000
C    -5.500000000    -2.944000000     1.334000000
C    -5.727000000    -3.682000000     0.186000000
H    -6.112000000    -4.692000000     0.297000000
C    -5.637000000    -3.005000000    -1.061000000
O    -5.706000000    -3.717000000    -2.175000000
C    -5.082000000    -3.384000000    -3.375000000
C    -3.700000000    -3.501000000    -3.505000000
H    -3.141000000    -3.853000000    -2.642000000
C    -5.838000000    -2.843000000    -4.405000000
H    -6.913000000    -2.859000000    -4.242000000
C    -5.152000000    -2.420000000    -5.577000000
H    -5.696000000    -2.001000000    -6.420000000
C    -3.805000000    -2.649000000    -5.772000000
H    -3.243000000    -2.319000000    -6.642000000
C    -3.058000000    -3.160000000    -4.699000000
O    -1.636000000    -3.339000000    -4.759000000
C    -0.736000000    -2.323000000    -5.057000000
C     0.543000000    -2.663000000    -5.439000000
H     0.845000000    -3.661000000    -5.747000000
C     1.466000000    -1.671000000    -5.618000000
O     2.674000000    -2.034000000    -6.251000000
C     3.911000000    -1.822000000    -5.725000000
C     4.664000000    -0.781000000    -6.245000000
H     4.335000000    -0.313000000    -7.169000000
C     5.781000000    -0.269000000    -5.550000000
H     6.335000000     0.561000000    -5.980000000
C     6.252000000    -0.887000000    -4.399000000
H     7.210000000    -0.610000000    -3.967000000
C     5.495000000    -1.947000000    -3.848000000
C     4.331000000    -2.325000000    -4.526000000
H     3.764000000    -3.124000000    -4.054000000
C    -0.894000000    -2.434000000    -0.334000000
H    -1.609000000    -3.113000000    -0.792000000
C    -1.034000000    -1.059000000    -0.575000000
H    -1.751000000    -0.634000000    -1.271000000
C    -0.157000000    -0.152000000     0.080000000
C    -0.239000000     1.338000000    -0.092000000
H    -0.434000000     1.822000000     0.867000000
H     0.758000000     1.604000000    -0.450000000
H    -1.006000000     1.546000000    -0.841000000
C     0.864000000    -0.686000000     0.877000000
H     1.497000000    -0.013000000     1.449000000
C     1.020000000    -2.100000000     0.977000000
H     1.852000000    -2.417000000     1.600000000
C     0.099000000    -2.956000000     0.442000000
C     0.205000000    -4.440000000     0.610000000
O     1.142000000    -4.898000000     1.187000000
O    -0.731000000    -5.139000000     0.268000000
O     3.773000000    -5.969000000     4.356000000
H     2.934000000    -6.421000000     4.269000000
H     3.855000000    -5.457000000     3.551000000
O     4.640000000    -5.707000000    -1.683000000
H     3.825000000    -5.448000000    -2.113000000
H     4.468000000    -5.584000000    -0.750000000
O    -4.603000000    -8.918000000     0.598000000
H    -4.077000000    -9.244000000    -0.133000000
H    -4.348000000    -8.000000000     0.686000000
O     1.373000000    -7.610000000     0.593000000
H     1.500000000    -6.663000000     0.645000000
H     0.823000000    -7.820000000     1.348000000
O     0.478000000    -7.598000000     5.927000000
H     1.146000000    -8.195000000     5.591000000
H     0.319000000    -6.986000000     5.209000000
O     1.737000000    -2.537000000    -2.336000000
H     0.815000000    -2.357000000    -2.155000000
H     2.180000000    -1.704000000    -2.177000000
O     3.704000000    -9.177000000     0.374000000
H     3.533000000   -10.003000000     0.826000000
H     2.916000000    -8.654000000     0.522000000
O    -2.673000000    -8.319000000    -1.787000000
H    -3.507000000    -7.852000000    -1.842000000
H    -2.568000000    -8.724000000    -2.649000000
O    -3.228000000    -6.181000000     0.458000000
H    -2.396000000    -5.710000000     0.425000000
H    -3.471000000    -6.301000000    -0.460000000
O     2.120000000    -4.874000000    -3.617000000
H     1.327000000    -5.314000000    -3.922000000
H     1.801000000    -4.131000000    -3.105000000
O    -2.441000000    -6.946000000     3.056000000
H    -1.886000000    -6.195000000     3.267000000
H    -2.638000000    -6.844000000     2.125000000
O     1.507000000    -7.990000000    -4.091000000
H     2.190000000    -8.584000000    -4.402000000
H     1.320000000    -8.285000000    -3.199000000
O    -0.461000000    -8.781000000     2.491000000
H    -1.348000000    -8.574000000     2.787000000
H    -0.588000000    -9.350000000     1.732000000
O     3.842000000    -5.132000000     1.214000000
H     2.915000000    -5.082000000     0.981000000
H     4.170000000    -4.242000000     1.080000000
O    -1.040000000   -10.532000000     0.292000000
H    -0.949000000   -11.482000000     0.222000000
H    -1.223000000   -10.242000000    -0.601000000
O     1.116000000    -9.119000000    -1.626000000
H     1.080000000    -8.636000000    -0.800000000
H     1.261000000   -10.029000000    -1.365000000
O     0.722000000    -6.515000000     3.491000000
H     1.013000000    -5.913000000     2.806000000
H     0.142000000    -7.128000000     3.041000000
O    -0.721000000    -7.421000000    -5.083000000
H    -1.152000000    -6.818000000    -4.478000000
H     0.053000000    -7.725000000    -4.608000000
O    -0.554000000    -6.250000000    -2.106000000
H    -0.933000000    -7.125000000    -2.017000000
H    -0.595000000    -5.880000000    -1.224000000
