218
-1458.56676
C    -1.434000000    -2.096000000     3.998000000
H    -1.994000000    -2.061000000     3.067000000
C    -1.086000000    -0.984000000     4.656000000
C    -0.242000000    -0.987000000     5.717000000
H     0.176000000    -0.112000000     6.206000000
C    -1.671000000     0.358000000     4.095000000
O    -3.067000000     0.219000000     3.894000000
H    -1.295000000     0.601000000     3.091000000
O    -1.351000000     1.516000000     4.926000000
C    -0.923000000     2.651000000     4.285000000
C     0.476000000     2.752000000     4.209000000
H     1.098000000     2.105000000     4.822000000
C     1.003000000     3.538000000     3.195000000
O     2.362000000     3.376000000     2.913000000
C     0.193000000     4.426000000     2.392000000
C     0.829000000     5.366000000     1.348000000
H     0.317000000     6.328000000     1.282000000
C     0.930000000     4.802000000    -0.054000000
C    -0.122000000     4.755000000    -1.027000000
H    -1.067000000     5.219000000    -0.758000000
H     1.850000000     5.548000000     1.689000000
C    -1.203000000     4.355000000     2.593000000
H    -1.855000000     5.022000000     2.035000000
C    -1.762000000     3.499000000     3.519000000
C    -3.241000000     3.113000000     3.452000000
H    -3.786000000     4.041000000     3.268000000
H    -3.656000000     2.759000000     4.398000000
C    -3.673000000     2.068000000     2.419000000
C    -4.146000000     2.480000000     1.191000000
H    -4.220000000     3.536000000     0.946000000
C    -3.572000000     0.729000000     2.699000000
C    -3.933000000    -0.193000000     1.777000000
H    -3.897000000    -1.260000000     1.980000000
C    -4.393000000     0.212000000     0.501000000
O    -4.862000000    -0.794000000    -0.339000000
C    -4.002000000    -1.021000000    -1.558000000
C    -4.076000000    -2.512000000    -1.927000000
C    -3.823000000    -2.893000000    -3.263000000
H    -3.915000000    -2.218000000    -4.109000000
C    -3.987000000    -3.519000000    -0.886000000
H    -4.155000000    -3.307000000     0.167000000
O    -4.328000000    -0.257000000    -2.737000000
H    -2.980000000    -0.843000000    -1.194000000
C    -4.475000000     1.562000000     0.201000000
C    -5.012000000     2.115000000    -1.162000000
H    -5.543000000     3.067000000    -1.102000000
H    -5.851000000     1.464000000    -1.418000000
C    -3.954000000     2.090000000    -2.212000000
C    -3.121000000     3.202000000    -2.396000000
H    -3.445000000     4.182000000    -2.055000000
C    -3.599000000     0.884000000    -2.796000000
C    -2.437000000     0.747000000    -3.595000000
H    -2.187000000    -0.153000000    -4.151000000
C    -1.628000000     1.883000000    -3.741000000
O    -0.501000000     1.823000000    -4.481000000
C     0.734000000     1.590000000    -3.744000000
C     1.555000000     0.516000000    -4.394000000
C     0.965000000    -0.598000000    -4.886000000
H    -0.122000000    -0.608000000    -4.924000000
C     2.888000000     0.390000000    -4.050000000
H     3.422000000     1.239000000    -3.632000000
O     1.507000000     2.831000000    -3.770000000
H     0.405000000     1.263000000    -2.746000000
C    -1.968000000     3.093000000    -3.154000000
C    -1.052000000     4.289000000    -3.380000000
H    -1.640000000     5.181000000    -3.156000000
H    -0.727000000     4.293000000    -4.423000000
C     0.118000000     4.291000000    -2.366000000
C     1.292000000     3.647000000    -2.663000000
C     2.291000000     3.606000000    -1.720000000
H     3.117000000     2.956000000    -1.995000000
C     2.138000000     4.116000000    -0.369000000
O     3.075000000     3.786000000     0.638000000
C     2.713000000     2.745000000     1.655000000
H     1.842000000     2.141000000     1.361000000
C     3.905000000     1.746000000     1.741000000
C     3.814000000     0.777000000     2.789000000
H     3.018000000     0.849000000     3.527000000
C     4.900000000     1.575000000     0.788000000
H     5.053000000     2.337000000     0.028000000
C     5.821000000     0.548000000     0.825000000
O     6.886000000     0.498000000     0.030000000
C     5.789000000    -0.398000000     1.829000000
H     6.554000000    -1.163000000     1.939000000
C     4.725000000    -0.330000000     2.818000000
O     4.803000000    -1.176000000     3.815000000
C     4.183000000    -0.946000000     5.008000000
C     3.119000000    -1.754000000     5.400000000
H     2.715000000    -2.503000000     4.724000000
C     4.679000000     0.072000000     5.794000000
H     5.490000000     0.735000000     5.502000000
C     3.986000000     0.330000000     6.992000000
H     4.358000000     1.196000000     7.534000000
C     2.919000000    -0.470000000     7.421000000
H     2.446000000    -0.239000000     8.373000000
C     2.511000000    -1.531000000     6.658000000
O     1.302000000    -2.204000000     7.026000000
C     0.230000000    -2.252000000     6.118000000
C    -0.117000000    -3.438000000     5.461000000
H     0.391000000    -4.352000000     5.759000000
C    -0.922000000    -3.330000000     4.315000000
O    -1.132000000    -4.520000000     3.512000000
C    -2.344000000    -4.842000000     2.958000000
C    -2.450000000    -5.189000000     1.604000000
H    -1.582000000    -5.194000000     0.950000000
C    -3.565000000    -4.884000000     3.726000000
H    -3.570000000    -4.644000000     4.786000000
C    -4.807000000    -5.202000000     3.179000000
H    -5.658000000    -5.114000000     3.849000000
C    -4.831000000    -5.550000000     1.847000000
H    -5.834000000    -5.720000000     1.463000000
C    -3.658000000    -5.606000000     1.051000000
O    -3.753000000    -5.830000000    -0.312000000
C    -3.738000000    -4.823000000    -1.244000000
C    -3.510000000    -5.205000000    -2.595000000
H    -3.444000000    -6.253000000    -2.879000000
C    -3.634000000    -4.257000000    -3.543000000
O    -3.340000000    -4.591000000    -4.865000000
C    -2.360000000    -3.936000000    -5.588000000
C    -1.105000000    -3.676000000    -5.079000000
H    -0.682000000    -4.212000000    -4.234000000
C    -2.775000000    -3.327000000    -6.780000000
H    -3.767000000    -3.451000000    -7.208000000
C    -1.832000000    -2.731000000    -7.614000000
H    -2.135000000    -2.309000000    -8.569000000
C    -0.517000000    -2.512000000    -7.135000000
H     0.242000000    -2.035000000    -7.749000000
C    -0.179000000    -3.001000000    -5.847000000
O     1.114000000    -2.971000000    -5.438000000
C     1.754000000    -1.764000000    -5.214000000
C     3.125000000    -1.789000000    -5.060000000
H     3.739000000    -2.626000000    -5.381000000
C     3.682000000    -0.697000000    -4.363000000
O     5.028000000    -0.687000000    -4.200000000
C     5.782000000     0.174000000    -3.446000000
C     6.656000000     0.999000000    -4.122000000
H     6.697000000     1.095000000    -5.204000000
C     7.563000000     1.796000000    -3.393000000
H     8.219000000     2.493000000    -3.909000000
C     7.694000000     1.578000000    -2.040000000
H     8.391000000     2.191000000    -1.476000000
C     6.829000000     0.702000000    -1.334000000
C     5.804000000     0.066000000    -2.029000000
H     5.079000000    -0.525000000    -1.476000000
C     0.487000000    -2.468000000    -1.069000000
H     0.413000000    -3.086000000    -1.959000000
C     0.023000000    -1.187000000    -1.089000000
H    -0.449000000    -0.779000000    -1.979000000
C     0.092000000    -0.446000000     0.045000000
C    -0.499000000     0.960000000    -0.079000000
H    -0.537000000     1.507000000     0.865000000
H     0.178000000     1.616000000    -0.631000000
H    -1.470000000     1.129000000    -0.549000000
C     0.600000000    -0.912000000     1.228000000
H     0.675000000    -0.346000000     2.154000000
C     1.031000000    -2.288000000     1.286000000
H     1.282000000    -2.777000000     2.224000000
C     0.936000000    -3.041000000     0.116000000
C     1.356000000    -4.441000000     0.046000000
O     2.069000000    -4.916000000     0.895000000
O     0.843000000    -5.176000000    -0.788000000
O    -0.864000000    -6.974000000    -1.644000000
H    -0.714000000    -6.602000000    -2.514000000
H    -0.091000000    -6.723000000    -1.140000000
O     4.313000000    -6.039000000     1.592000000
H     4.909000000    -5.500000000     1.072000000
H     3.444000000    -5.688000000     1.400000000
O     2.087000000    -8.261000000    -3.750000000
H     1.896000000    -8.053000000    -2.836000000
H     1.331000000    -8.769000000    -4.043000000
O     2.559000000    -5.099000000    -6.561000000
H     2.437000000    -4.522000000    -7.315000000
H     2.144000000    -4.634000000    -5.834000000
O     6.146000000    -8.200000000     1.261000000
H     5.447000000    -7.551000000     1.172000000
H     5.935000000    -8.670000000     2.068000000
O     0.618000000    -6.866000000     5.845000000
H    -0.168000000    -7.177000000     5.397000000
H     1.224000000    -6.641000000     5.139000000
O     1.099000000    -8.680000000     2.748000000
H     1.044000000    -7.757000000     2.995000000
H     1.438000000    -8.668000000     1.853000000
O     5.185000000    -6.628000000    -2.553000000
H     5.107000000    -5.885000000    -1.955000000
H     5.215000000    -6.232000000    -3.424000000
O     3.576000000    -3.041000000    -1.852000000
H     2.933000000    -3.608000000    -2.278000000
H     3.053000000    -2.456000000    -1.304000000
O     1.698000000    -8.119000000    -0.328000000
H     2.613000000    -8.219000000    -0.067000000
H     1.501000000    -7.197000000    -0.162000000
O    -0.972000000    -6.908000000    -4.506000000
H    -0.635000000    -6.550000000    -5.327000000
H    -0.893000000    -7.856000000    -4.608000000
O    -2.278000000    -8.329000000     0.303000000
H    -1.700000000    -7.982000000    -0.377000000
H    -3.019000000    -7.724000000     0.319000000
O     1.142000000    -6.160000000     2.800000000
H     0.323000000    -5.720000000     3.029000000
H     1.449000000    -5.703000000     2.017000000
O     3.833000000    -6.041000000     4.331000000
H     3.909000000    -6.995000000     4.288000000
H     3.941000000    -5.752000000     3.425000000
O     0.349000000   -10.198000000    -1.229000000
H     0.901000000    -9.434000000    -1.061000000
H     0.656000000   -10.857000000    -0.607000000
O     2.095000000    -5.214000000    -3.304000000
H     2.251000000    -6.148000000    -3.446000000
H     1.803000000    -5.156000000    -2.394000000
O     5.726000000    -4.556000000    -0.968000000
H     6.519000000    -4.020000000    -0.941000000
H     5.010000000    -3.923000000    -1.009000000
O     6.483000000    -4.757000000     4.147000000
H     6.939000000    -4.181000000     3.534000000
H     5.579000000    -4.774000000     3.832000000
O    -1.795000000    -9.546000000    -2.743000000
H    -1.638000000    -8.622000000    -2.549000000
H    -1.222000000   -10.018000000    -2.140000000
