218
-1484.85766
C    -2.180000000    -0.633000000    -4.384000000
H    -1.730000000     0.355000000    -4.427000000
C    -3.108000000    -0.960000000    -3.430000000
C    -3.594000000    -2.272000000    -3.406000000
H    -4.393000000    -2.492000000    -2.703000000
C    -3.533000000     0.045000000    -2.349000000
O    -3.566000000     1.296000000    -2.941000000
H    -2.748000000     0.152000000    -1.586000000
O    -4.721000000    -0.276000000    -1.646000000
C    -4.712000000    -0.168000000    -0.274000000
C    -4.534000000    -1.330000000     0.462000000
H    -4.364000000    -2.265000000    -0.066000000
C    -4.347000000    -1.213000000     1.830000000
O    -3.842000000    -2.353000000     2.469000000
C    -4.379000000     0.054000000     2.465000000
C    -4.121000000     0.188000000     3.921000000
H    -4.672000000     1.102000000     4.151000000
C    -2.642000000     0.395000000     4.249000000
C    -2.159000000     1.703000000     4.385000000
H    -2.871000000     2.516000000     4.498000000
H    -4.448000000    -0.619000000     4.581000000
C    -4.533000000     1.176000000     1.675000000
H    -4.384000000     2.177000000     2.070000000
C    -4.741000000     1.087000000     0.331000000
C    -4.839000000     2.316000000    -0.568000000
H    -5.310000000     3.158000000    -0.056000000
H    -5.614000000     2.155000000    -1.320000000
C    -3.587000000     2.925000000    -1.088000000
C    -2.929000000     3.933000000    -0.426000000
H    -3.342000000     4.310000000     0.506000000
C    -2.984000000     2.360000000    -2.237000000
C    -1.828000000     2.910000000    -2.786000000
H    -1.392000000     2.491000000    -3.690000000
C    -1.194000000     3.981000000    -2.111000000
O     0.036000000     4.404000000    -2.559000000
C     1.164000000     3.791000000    -1.910000000
C     2.250000000     3.353000000    -2.870000000
C     3.389000000     2.770000000    -2.288000000
H     3.526000000     2.818000000    -1.211000000
C     2.016000000     3.177000000    -4.183000000
H     1.197000000     3.696000000    -4.675000000
O     1.701000000     4.660000000    -0.892000000
H     0.774000000     2.938000000    -1.335000000
C    -1.760000000     4.458000000    -0.928000000
C    -0.964000000     5.441000000    -0.082000000
H    -1.682000000     6.087000000     0.428000000
H    -0.406000000     6.100000000    -0.751000000
C    -0.027000000     4.767000000     0.854000000
C    -0.401000000     4.561000000     2.138000000
H    -1.381000000     4.898000000     2.467000000
C     1.242000000     4.422000000     0.443000000
C     2.138000000     3.776000000     1.400000000
H     3.079000000     3.423000000     0.985000000
C     1.690000000     3.532000000     2.649000000
O     2.538000000     2.800000000     3.458000000
C     2.300000000     1.359000000     3.518000000
C     3.619000000     0.592000000     3.493000000
C     4.675000000     0.996000000     2.637000000
H     4.618000000     1.916000000     2.061000000
C     3.678000000    -0.634000000     4.181000000
H     2.903000000    -0.945000000     4.876000000
O     1.477000000     1.052000000     4.598000000
H     1.806000000     1.115000000     2.567000000
C     0.416000000     3.838000000     3.025000000
C    -0.231000000     3.419000000     4.365000000
H    -1.029000000     4.128000000     4.595000000
H     0.517000000     3.578000000     5.145000000
C    -0.745000000     1.926000000     4.451000000
C     0.102000000     0.837000000     4.448000000
C    -0.392000000    -0.444000000     4.502000000
H     0.208000000    -1.350000000     4.485000000
C    -1.737000000    -0.688000000     4.303000000
O    -2.191000000    -1.921000000     4.041000000
C    -2.431000000    -2.288000000     2.663000000
H    -2.001000000    -1.559000000     1.960000000
C    -1.770000000    -3.616000000     2.279000000
C    -2.274000000    -4.354000000     1.208000000
H    -3.240000000    -4.105000000     0.776000000
C    -0.534000000    -4.035000000     2.860000000
H    -0.173000000    -3.517000000     3.745000000
C     0.220000000    -5.079000000     2.326000000
O     1.416000000    -5.502000000     2.845000000
C    -0.300000000    -5.885000000     1.371000000
H     0.271000000    -6.742000000     1.023000000
C    -1.560000000    -5.527000000     0.814000000
O    -2.151000000    -6.367000000    -0.118000000
C    -3.149000000    -6.108000000    -1.049000000
C    -2.899000000    -5.272000000    -2.161000000
H    -1.886000000    -4.880000000    -2.202000000
C    -4.371000000    -6.772000000    -0.952000000
H    -4.557000000    -7.512000000    -0.178000000
C    -5.318000000    -6.493000000    -1.933000000
H    -6.196000000    -7.131000000    -1.861000000
C    -5.041000000    -5.689000000    -2.979000000
H    -5.802000000    -5.489000000    -3.729000000
C    -3.808000000    -5.153000000    -3.198000000
O    -3.599000000    -4.448000000    -4.365000000
C    -3.160000000    -3.140000000    -4.345000000
C    -2.286000000    -2.786000000    -5.401000000
H    -2.080000000    -3.539000000    -6.156000000
C    -1.774000000    -1.485000000    -5.399000000
O    -0.888000000    -1.111000000    -6.345000000
C    -0.449000000     0.152000000    -6.655000000
C     0.812000000     0.552000000    -6.217000000
H     1.510000000    -0.125000000    -5.730000000
C    -1.061000000     0.955000000    -7.638000000
H    -2.057000000     0.673000000    -7.971000000
C    -0.596000000     2.153000000    -7.947000000
H    -1.028000000     2.780000000    -8.723000000
C     0.598000000     2.573000000    -7.461000000
H     1.050000000     3.470000000    -7.879000000
C     1.320000000     1.741000000    -6.600000000
O     2.594000000     2.092000000    -6.357000000
C     2.869000000     2.407000000    -4.982000000
C     3.963000000     1.840000000    -4.374000000
H     4.612000000     1.240000000    -5.007000000
C     4.239000000     2.068000000    -3.020000000
O     5.241000000     1.417000000    -2.450000000
C     6.009000000     1.909000000    -1.369000000
C     6.075000000     1.129000000    -0.207000000
H     5.377000000     0.296000000    -0.170000000
C     6.779000000     3.049000000    -1.385000000
H     6.934000000     3.623000000    -2.294000000
C     7.594000000     3.445000000    -0.372000000
H     8.171000000     4.359000000    -0.488000000
C     7.685000000     2.652000000     0.738000000
H     8.438000000     2.867000000     1.492000000
C     6.895000000     1.514000000     0.853000000
O     6.893000000     0.638000000     1.911000000
C     5.789000000     0.192000000     2.590000000
C     5.834000000    -1.067000000     3.210000000
H     6.695000000    -1.722000000     3.104000000
C     4.811000000    -1.443000000     4.052000000
O     4.899000000    -2.616000000     4.729000000
C     3.828000000    -3.456000000     4.796000000
C     3.297000000    -3.547000000     6.076000000
H     3.822000000    -3.056000000     6.892000000
C     2.141000000    -4.287000000     6.343000000
H     1.806000000    -4.200000000     7.374000000
C     1.542000000    -4.945000000     5.253000000
H     0.581000000    -5.417000000     5.439000000
C     2.079000000    -4.949000000     3.922000000
C     3.272000000    -4.146000000     3.700000000
H     3.761000000    -4.039000000     2.735000000
C     0.563000000    -2.919000000    -0.388000000
H    -0.028000000    -3.772000000    -0.711000000
C    -0.095000000    -1.730000000    -0.166000000
H    -1.176000000    -1.712000000    -0.278000000
C     0.580000000    -0.587000000     0.211000000
C    -0.098000000     0.719000000     0.424000000
H    -0.417000000     0.736000000     1.469000000
H     0.537000000     1.593000000     0.265000000
H    -0.875000000     0.854000000    -0.331000000
C     1.930000000    -0.711000000     0.537000000
H     2.502000000     0.134000000     0.910000000
C     2.584000000    -1.940000000     0.334000000
H     3.648000000    -1.941000000     0.556000000
C     1.946000000    -3.021000000    -0.234000000
C     2.600000000    -4.366000000    -0.448000000
O     3.776000000    -4.408000000    -0.278000000
O     2.001000000    -5.362000000    -0.764000000
O     6.190000000    -4.268000000     1.170000000
H     5.305000000    -4.231000000     0.806000000
H     6.590000000    -3.438000000     0.911000000
O     7.845000000    -2.308000000     0.617000000
H     7.789000000    -1.353000000     0.658000000
H     8.523000000    -2.480000000    -0.036000000
O     2.044000000    -5.453000000    -5.718000000
H     2.716000000    -6.049000000    -5.388000000
H     1.693000000    -5.029000000    -4.935000000
O     5.708000000    -8.094000000     3.230000000
H     6.253000000    -7.323000000     3.385000000
H     5.072000000    -7.811000000     2.573000000
O     1.551000000    -4.302000000    -3.204000000
H     2.054000000    -3.509000000    -3.021000000
H     1.460000000    -4.729000000    -2.352000000
O     5.569000000    -3.930000000    -4.817000000
H     6.009000000    -4.601000000    -4.295000000
H     4.639000000    -4.043000000    -4.618000000
O     0.511000000    -7.451000000    -1.736000000
H     1.088000000    -6.708000000    -1.556000000
H     0.188000000    -7.294000000    -2.623000000
O     2.069000000    -8.854000000     0.151000000
H     2.492000000    -8.148000000     0.640000000
H     1.399000000    -8.415000000    -0.373000000
O     3.891000000    -7.465000000    -4.440000000
H     4.775000000    -7.577000000    -4.790000000
H     3.997000000    -7.548000000    -3.492000000
O     3.848000000    -7.229000000    -1.820000000
H     3.452000000    -7.769000000    -1.136000000
H     3.357000000    -6.408000000    -1.793000000
O     7.099000000    -5.782000000     3.299000000
H     6.781000000    -5.233000000     2.582000000
H     7.567000000    -5.177000000     3.875000000
O     3.802000000    -6.670000000     1.355000000
H     4.064000000    -6.128000000     0.610000000
H     3.478000000    -6.045000000     2.003000000
O     8.141000000    -5.388000000    -0.621000000
H     7.781000000    -4.863000000     0.093000000
H     8.457000000    -6.186000000    -0.197000000
O     2.456000000    -1.642000000    -2.742000000
H     3.398000000    -1.647000000    -2.572000000
H     2.078000000    -1.192000000    -1.986000000
O     4.221000000   -10.746000000    -0.403000000
H     3.575000000   -10.099000000    -0.122000000
H     3.707000000   -11.424000000    -0.841000000
O     6.384000000    -1.209000000    -4.409000000
H     6.342000000    -2.163000000    -4.461000000
H     5.744000000    -0.977000000    -3.736000000
O    -1.945000000    -9.288000000    -0.876000000
H    -1.632000000    -8.396000000    -1.024000000
H    -2.126000000    -9.326000000     0.063000000
O     6.128000000    -5.519000000    -2.781000000
H     6.888000000    -5.336000000    -2.228000000
H     5.591000000    -6.116000000    -2.260000000
O     4.891000000    -2.785000000    -2.014000000
H     4.428000000    -3.277000000    -1.336000000
H     5.314000000    -3.456000000    -2.550000000
