218
-1462.05543
C    -1.549000000    -1.450000000     4.684000000
H    -2.499000000    -1.468000000     4.156000000
C    -0.764000000    -0.273000000     4.759000000
C     0.438000000    -0.337000000     5.496000000
H     1.024000000     0.579000000     5.494000000
C    -1.301000000     0.944000000     4.014000000
O    -2.818000000     1.086000000     4.069000000
H    -0.987000000     0.805000000     2.969000000
O    -0.755000000     2.166000000     4.523000000
C    -0.370000000     3.134000000     3.676000000
C     0.983000000     3.106000000     3.408000000
H     1.669000000     2.581000000     4.068000000
C     1.496000000     3.828000000     2.309000000
O     2.871000000     3.579000000     2.022000000
C     0.651000000     4.607000000     1.495000000
C     1.169000000     5.415000000     0.344000000
H     0.657000000     6.374000000     0.239000000
C     1.187000000     4.553000000    -0.869000000
C     0.111000000     4.592000000    -1.793000000
H    -0.691000000     5.247000000    -1.465000000
H     2.226000000     5.640000000     0.500000000
C    -0.639000000     4.641000000     1.856000000
H    -1.241000000     5.278000000     1.213000000
C    -1.167000000     3.929000000     2.946000000
C    -2.712000000     3.920000000     3.067000000
H    -2.998000000     4.851000000     2.573000000
H    -3.008000000     3.870000000     4.117000000
C    -3.388000000     2.757000000     2.337000000
C    -3.983000000     2.966000000     1.085000000
H    -3.913000000     3.988000000     0.721000000
C    -3.402000000     1.435000000     2.884000000
C    -3.916000000     0.393000000     2.096000000
H    -3.919000000    -0.627000000     2.471000000
C    -4.424000000     0.583000000     0.836000000
O    -4.826000000    -0.521000000     0.060000000
C    -4.045000000    -1.068000000    -1.038000000
C    -3.958000000    -2.599000000    -1.098000000
C    -3.564000000    -3.199000000    -2.256000000
H    -3.379000000    -2.607000000    -3.149000000
C    -4.285000000    -3.329000000     0.029000000
H    -4.568000000    -2.841000000     0.958000000
O    -4.481000000    -0.429000000    -2.261000000
H    -2.997000000    -0.750000000    -0.937000000
C    -4.443000000     1.875000000     0.346000000
C    -4.994000000     2.086000000    -1.043000000
H    -5.188000000     3.153000000    -1.175000000
H    -5.913000000     1.507000000    -1.153000000
C    -4.006000000     1.912000000    -2.181000000
C    -3.119000000     2.982000000    -2.600000000
H    -3.209000000     3.932000000    -2.078000000
C    -3.835000000     0.633000000    -2.820000000
C    -2.885000000     0.462000000    -3.780000000
H    -2.783000000    -0.572000000    -4.102000000
C    -1.998000000     1.501000000    -4.115000000
O    -0.989000000     1.088000000    -4.918000000
C     0.351000000     0.939000000    -4.284000000
C     1.272000000    -0.314000000    -4.763000000
C     0.642000000    -1.490000000    -4.987000000
H    -0.443000000    -1.449000000    -4.924000000
C     2.593000000    -0.258000000    -4.761000000
H     3.112000000     0.681000000    -4.584000000
O     1.066000000     2.201000000    -4.350000000
H     0.224000000     0.652000000    -3.230000000
C    -2.133000000     2.747000000    -3.499000000
C    -1.110000000     3.885000000    -3.860000000
H    -1.575000000     4.869000000    -3.774000000
H    -0.861000000     3.748000000    -4.915000000
C     0.062000000     3.808000000    -2.922000000
C     1.164000000     2.954000000    -3.242000000
C     2.246000000     2.890000000    -2.369000000
H     3.165000000     2.347000000    -2.577000000
C     2.253000000     3.659000000    -1.182000000
O     3.267000000     3.424000000    -0.317000000
C     2.989000000     2.669000000     0.901000000
H     2.039000000     2.180000000     0.638000000
C     4.083000000     1.630000000     1.101000000
C     4.324000000     1.168000000     2.374000000
H     3.728000000     1.608000000     3.170000000
C     4.717000000     0.972000000     0.038000000
H     4.474000000     1.270000000    -0.979000000
C     5.722000000     0.044000000     0.299000000
O     6.574000000    -0.491000000    -0.729000000
C     6.011000000    -0.332000000     1.601000000
H     6.897000000    -0.939000000     1.767000000
C     5.230000000     0.181000000     2.637000000
O     5.509000000    -0.344000000     3.875000000
C     4.767000000    -0.081000000     4.988000000
C     3.667000000    -0.849000000     5.319000000
H     3.419000000    -1.757000000     4.775000000
C     5.099000000     0.995000000     5.817000000
H     5.950000000     1.632000000     5.592000000
C     4.260000000     1.349000000     6.911000000
H     4.344000000     2.322000000     7.387000000
C     3.284000000     0.423000000     7.318000000
H     2.731000000     0.695000000     8.214000000
C     2.966000000    -0.702000000     6.525000000
O     1.944000000    -1.557000000     6.928000000
C     0.715000000    -1.447000000     6.285000000
C    -0.085000000    -2.581000000     6.171000000
H     0.089000000    -3.511000000     6.706000000
C    -1.244000000    -2.594000000     5.373000000
O    -1.867000000    -3.787000000     5.204000000
C    -3.016000000    -3.984000000     4.497000000
C    -2.961000000    -4.703000000     3.281000000
H    -2.009000000    -5.080000000     2.917000000
C    -4.275000000    -3.556000000     4.961000000
H    -4.294000000    -3.184000000     5.982000000
C    -5.428000000    -3.758000000     4.205000000
H    -6.431000000    -3.577000000     4.583000000
C    -5.380000000    -4.375000000     2.945000000
H    -6.270000000    -4.573000000     2.354000000
C    -4.153000000    -4.845000000     2.526000000
O    -4.135000000    -5.459000000     1.264000000
C    -4.142000000    -4.732000000     0.043000000
C    -3.669000000    -5.294000000    -1.069000000
H    -3.510000000    -6.367000000    -0.997000000
C    -3.408000000    -4.563000000    -2.263000000
O    -3.143000000    -5.284000000    -3.364000000
C    -2.518000000    -4.818000000    -4.540000000
C    -1.111000000    -4.536000000    -4.470000000
H    -0.519000000    -4.710000000    -3.576000000
C    -3.207000000    -4.656000000    -5.721000000
H    -4.283000000    -4.803000000    -5.770000000
C    -2.595000000    -4.076000000    -6.795000000
H    -3.111000000    -3.730000000    -7.687000000
C    -1.251000000    -3.733000000    -6.826000000
H    -0.812000000    -3.241000000    -7.690000000
C    -0.495000000    -3.976000000    -5.649000000
O     0.800000000    -3.803000000    -5.710000000
C     1.426000000    -2.636000000    -5.286000000
C     2.811000000    -2.591000000    -5.343000000
H     3.431000000    -3.364000000    -5.789000000
C     3.391000000    -1.401000000    -5.029000000
O     4.771000000    -1.220000000    -5.164000000
C     5.595000000    -0.559000000    -4.274000000
C     6.594000000     0.178000000    -4.807000000
H     6.700000000     0.314000000    -5.880000000
C     7.528000000     0.744000000    -4.009000000
H     8.241000000     1.471000000    -4.389000000
C     7.543000000     0.525000000    -2.649000000
H     8.201000000     1.105000000    -2.006000000
C     6.509000000    -0.179000000    -2.077000000
C     5.534000000    -0.766000000    -2.887000000
H     4.890000000    -1.568000000    -2.537000000
C    -0.159000000    -2.762000000     0.116000000
H    -0.597000000    -3.628000000    -0.374000000
C    -0.558000000    -1.527000000    -0.318000000
H    -1.192000000    -1.425000000    -1.196000000
C    -0.107000000    -0.335000000     0.288000000
C    -0.529000000     1.059000000    -0.233000000
H    -0.446000000     1.799000000     0.566000000
H     0.146000000     1.327000000    -1.049000000
H    -1.547000000     1.111000000    -0.627000000
C     0.735000000    -0.386000000     1.382000000
H     1.130000000     0.503000000     1.867000000
C     1.023000000    -1.631000000     1.885000000
H     1.539000000    -1.662000000     2.842000000
C     0.673000000    -2.810000000     1.241000000
C     1.112000000    -4.115000000     1.882000000
O     1.709000000    -4.116000000     2.937000000
O     1.073000000    -5.213000000     1.297000000
O    -1.096000000    -6.408000000     0.904000000
H    -0.642000000    -6.841000000     0.182000000
H    -0.468000000    -5.765000000     1.232000000
O     5.071000000    -2.970000000     0.426000000
H     5.229000000    -2.158000000    -0.055000000
H     4.397000000    -3.422000000    -0.081000000
O     3.404000000    -6.709000000     1.205000000
H     2.627000000    -6.253000000     0.881000000
H     3.183000000    -6.946000000     2.106000000
O     1.749000000    -5.522000000     5.236000000
H     1.868000000    -5.124000000     4.373000000
H     1.261000000    -6.327000000     5.064000000
O     3.800000000    -4.253000000     6.483000000
H     3.082000000    -4.619000000     5.966000000
H     3.404000000    -3.526000000     6.963000000
O     2.179000000    -6.768000000    -4.147000000
H     1.946000000    -6.141000000    -3.462000000
H     1.357000000    -6.935000000    -4.608000000
O     7.683000000    -4.488000000     0.422000000
H     7.863000000    -4.594000000     1.356000000
H     6.876000000    -3.975000000     0.390000000
O    -0.283000000    -9.612000000     2.695000000
H    -0.475000000   -10.140000000     3.470000000
H     0.202000000   -10.202000000     2.118000000
O     2.915000000    -8.944000000     3.848000000
H     2.108000000    -8.439000000     3.745000000
H     2.619000000    -9.842000000     3.996000000
O     5.304000000    -7.501000000    -0.952000000
H     5.052000000    -8.104000000    -1.652000000
H     4.659000000    -7.651000000    -0.262000000
O     5.398000000    -8.641000000     2.248000000
H     4.678000000    -8.852000000     2.842000000
H     5.116000000    -7.840000000     1.805000000
O     0.130000000    -7.613000000    -1.296000000
H    -0.385000000    -8.054000000    -1.973000000
H     0.687000000    -8.301000000    -0.933000000
O     0.979000000    -7.369000000     3.138000000
H     0.336000000    -8.030000000     2.882000000
H     0.882000000    -6.675000000     2.486000000
O     4.410000000    -4.787000000    -1.538000000
H     3.460000000    -4.890000000    -1.597000000
H     4.718000000    -5.614000000    -1.167000000
O     0.915000000    -5.750000000     8.156000000
H     1.173000000    -5.868000000     7.242000000
H     1.641000000    -6.119000000     8.659000000
O     1.731000000    -5.253000000    -1.381000000
H     1.419000000    -4.971000000    -0.521000000
H     1.189000000    -6.013000000    -1.594000000
O     4.442000000    -3.880000000     3.035000000
H     4.704000000    -3.525000000     2.185000000
H     3.535000000    -4.157000000     2.909000000
O    -2.923000000    -7.994000000     2.556000000
H    -2.077000000    -8.439000000     2.499000000
H    -2.782000000    -7.156000000     2.116000000
O     6.188000000    -3.537000000     5.000000000
H     5.631000000    -3.795000000     4.266000000
H     5.692000000    -3.790000000     5.778000000
