218
-1497.81987
C    -1.321000000    -0.682000000     5.221000000
H    -2.334000000    -0.696000000     4.826000000
C    -0.554000000     0.457000000     5.144000000
C     0.692000000     0.498000000     5.800000000
H     1.383000000     1.333000000     5.714000000
C    -1.000000000     1.453000000     4.102000000
O    -2.426000000     1.666000000     4.113000000
H    -0.731000000     1.127000000     3.087000000
O    -0.412000000     2.664000000     4.225000000
C     0.027000000     3.338000000     3.070000000
C     1.363000000     3.088000000     2.650000000
H     2.122000000     2.542000000     3.204000000
C     1.913000000     3.751000000     1.538000000
O     3.209000000     3.417000000     1.223000000
C     1.106000000     4.674000000     0.862000000
C     1.597000000     5.398000000    -0.413000000
H     1.070000000     6.335000000    -0.602000000
C     1.421000000     4.394000000    -1.511000000
C     0.278000000     4.454000000    -2.367000000
H    -0.426000000     5.251000000    -2.140000000
H     2.620000000     5.772000000    -0.330000000
C    -0.251000000     4.837000000     1.202000000
H    -0.924000000     5.362000000     0.529000000
C    -0.808000000     4.168000000     2.283000000
C    -2.324000000     4.229000000     2.632000000
H    -2.801000000     5.017000000     2.045000000
H    -2.497000000     4.355000000     3.703000000
C    -3.030000000     2.987000000     2.156000000
C    -3.700000000     3.119000000     0.933000000
H    -3.724000000     4.074000000     0.415000000
C    -3.021000000     1.807000000     2.848000000
C    -3.643000000     0.654000000     2.302000000
H    -3.630000000    -0.289000000     2.844000000
C    -4.277000000     0.827000000     1.073000000
O    -4.889000000    -0.306000000     0.581000000
C    -4.239000000    -0.936000000    -0.619000000
C    -4.173000000    -2.462000000    -0.501000000
C    -4.198000000    -3.342000000    -1.540000000
H    -4.261000000    -2.983000000    -2.564000000
C    -4.006000000    -3.014000000     0.781000000
H    -3.885000000    -2.318000000     1.607000000
O    -4.874000000    -0.421000000    -1.829000000
H    -3.198000000    -0.584000000    -0.671000000
C    -4.317000000     2.016000000     0.381000000
C    -5.068000000     2.199000000    -0.886000000
H    -5.497000000     3.198000000    -0.984000000
H    -5.993000000     1.619000000    -0.881000000
C    -4.156000000     1.852000000    -2.034000000
C    -3.261000000     2.792000000    -2.625000000
H    -3.377000000     3.806000000    -2.249000000
C    -4.074000000     0.536000000    -2.462000000
C    -3.132000000     0.117000000    -3.416000000
H    -3.171000000    -0.868000000    -3.874000000
C    -2.170000000     1.049000000    -3.866000000
O    -1.249000000     0.552000000    -4.762000000
C     0.120000000     0.420000000    -4.212000000
C     0.800000000    -0.866000000    -4.679000000
C     0.118000000    -2.087000000    -4.509000000
H    -0.962000000    -2.156000000    -4.405000000
C     2.177000000    -0.865000000    -4.832000000
H     2.708000000     0.082000000    -4.784000000
O     0.796000000     1.606000000    -4.561000000
H     0.003000000     0.380000000    -3.119000000
C    -2.274000000     2.393000000    -3.523000000
C    -1.366000000     3.464000000    -4.070000000
H    -1.821000000     4.449000000    -4.195000000
H    -1.216000000     3.252000000    -5.131000000
C    -0.012000000     3.527000000    -3.364000000
C     0.959000000     2.535000000    -3.562000000
C     2.160000000     2.505000000    -2.819000000
H     2.923000000     1.749000000    -2.987000000
C     2.375000000     3.439000000    -1.829000000
O     3.540000000     3.174000000    -1.131000000
C     3.279000000     2.501000000     0.053000000
H     2.345000000     1.923000000    -0.010000000
C     4.362000000     1.485000000     0.305000000
C     4.583000000     1.040000000     1.612000000
H     3.919000000     1.259000000     2.444000000
C     5.107000000     0.917000000    -0.730000000
H     4.938000000     1.165000000    -1.775000000
C     6.073000000    -0.117000000    -0.436000000
O     6.830000000    -0.609000000    -1.441000000
C     6.299000000    -0.558000000     0.874000000
H     6.918000000    -1.427000000     1.079000000
C     5.497000000     0.023000000     1.937000000
O     5.534000000    -0.595000000     3.137000000
C     5.122000000    -0.038000000     4.345000000
C     4.194000000    -0.769000000     5.137000000
H     3.796000000    -1.687000000     4.711000000
C     5.507000000     1.197000000     4.813000000
H     6.113000000     1.820000000     4.160000000
C     4.859000000     1.762000000     5.895000000
H     4.991000000     2.833000000     6.030000000
C     3.927000000     1.096000000     6.631000000
H     3.439000000     1.493000000     7.518000000
C     3.550000000    -0.203000000     6.246000000
O     2.506000000    -0.828000000     6.878000000
C     1.211000000    -0.653000000     6.444000000
C     0.390000000    -1.738000000     6.533000000
H     0.859000000    -2.637000000     6.926000000
C    -0.848000000    -1.819000000     5.902000000
O    -1.359000000    -3.068000000     5.750000000
C    -2.599000000    -3.294000000     5.248000000
C    -2.698000000    -3.944000000     4.041000000
H    -1.813000000    -4.166000000     3.449000000
C    -3.751000000    -2.855000000     5.911000000
H    -3.605000000    -2.404000000     6.890000000
C    -4.983000000    -3.059000000     5.368000000
H    -5.924000000    -2.716000000     5.791000000
C    -5.056000000    -3.719000000     4.134000000
H    -5.986000000    -3.761000000     3.574000000
C    -3.926000000    -4.146000000     3.460000000
O    -4.076000000    -4.929000000     2.299000000
C    -3.966000000    -4.391000000     0.990000000
C    -4.029000000    -5.271000000    -0.118000000
H    -3.993000000    -6.340000000     0.079000000
C    -4.018000000    -4.715000000    -1.364000000
O    -3.956000000    -5.539000000    -2.425000000
C    -3.320000000    -5.183000000    -3.538000000
C    -1.937000000    -5.160000000    -3.534000000
H    -1.455000000    -5.404000000    -2.592000000
C    -3.999000000    -4.956000000    -4.749000000
H    -5.070000000    -5.140000000    -4.732000000
C    -3.291000000    -4.634000000    -5.907000000
H    -3.838000000    -4.479000000    -6.834000000
C    -1.943000000    -4.381000000    -5.814000000
H    -1.379000000    -3.959000000    -6.642000000
C    -1.238000000    -4.706000000    -4.620000000
O     0.117000000    -4.508000000    -4.519000000
C     0.758000000    -3.293000000    -4.718000000
C     2.102000000    -3.257000000    -4.960000000
H     2.586000000    -4.208000000    -5.165000000
C     2.855000000    -2.102000000    -4.998000000
O     4.247000000    -2.062000000    -5.290000000
C     5.212000000    -1.291000000    -4.650000000
C     5.868000000    -0.258000000    -5.419000000
H     5.670000000    -0.156000000    -6.483000000
C     6.637000000     0.695000000    -4.810000000
H     7.024000000     1.520000000    -5.403000000
C     7.026000000     0.563000000    -3.490000000
H     7.643000000     1.197000000    -2.859000000
C     6.605000000    -0.571000000    -2.798000000
C     5.616000000    -1.472000000    -3.331000000
H     5.156000000    -2.224000000    -2.695000000
C    -0.335000000    -2.666000000    -0.547000000
H    -0.799000000    -3.450000000    -1.140000000
C    -0.623000000    -1.366000000    -0.913000000
H    -1.258000000    -1.176000000    -1.774000000
C    -0.282000000    -0.328000000    -0.020000000
C    -0.660000000     1.097000000    -0.311000000
H    -0.840000000     1.108000000    -1.388000000
H    -1.539000000     1.483000000     0.210000000
H     0.148000000     1.802000000    -0.104000000
C     0.438000000    -0.632000000     1.133000000
H     0.692000000     0.131000000     1.864000000
C     0.760000000    -1.966000000     1.503000000
H     1.193000000    -2.144000000     2.483000000
C     0.267000000    -2.995000000     0.657000000
C     0.509000000    -4.435000000     1.029000000
O     1.053000000    -4.618000000     2.120000000
O     0.021000000    -5.359000000     0.355000000
O    -1.546000000    -8.317000000    -2.688000000
H    -0.958000000    -7.567000000    -2.597000000
H    -0.964000000    -9.077000000    -2.697000000
O     4.594000000    -8.271000000     3.260000000
H     3.997000000    -7.782000000     2.694000000
H     4.704000000    -7.713000000     4.030000000
O     3.604000000    -4.528000000     3.418000000
H     3.624000000    -5.222000000     4.077000000
H     2.690000000    -4.492000000     3.137000000
O    -3.093000000    -7.226000000     4.443000000
H    -2.363000000    -6.846000000     3.955000000
H    -2.916000000    -6.997000000     5.356000000
O    -0.178000000    -5.714000000     4.302000000
H     0.331000000    -5.572000000     5.100000000
H     0.272000000    -5.194000000     3.635000000
O     6.256000000    -6.125000000    -0.337000000
H     5.889000000    -6.798000000    -0.911000000
H     5.494000000    -5.740000000     0.097000000
O     0.954000000    -8.504000000     4.462000000
H     1.459000000    -8.491000000     3.649000000
H     0.797000000    -7.581000000     4.661000000
O     2.039000000    -8.459000000    -0.433000000
H     1.371000000    -9.006000000    -0.846000000
H     2.026000000    -7.644000000    -0.935000000
O    -0.679000000    -9.923000000     0.746000000
H    -1.540000000    -9.872000000     0.332000000
H    -0.461000000    -9.016000000     0.959000000
O     4.739000000    -8.623000000    -1.563000000
H     3.998000000    -8.234000000    -1.098000000
H     4.857000000    -9.479000000    -1.151000000
O     4.030000000    -5.050000000     0.568000000
H     3.515000000    -5.779000000     0.913000000
H     4.255000000    -4.530000000     1.339000000
O    -0.538000000    -7.483000000     1.813000000
H    -0.817000000    -7.093000000     2.641000000
H    -0.528000000    -6.753000000     1.195000000
O     3.248000000    -4.758000000    -1.997000000
H     3.097000000    -3.824000000    -2.142000000
H     3.791000000    -4.794000000    -1.210000000
O    -3.200000000    -9.382000000    -0.175000000
H    -3.991000000    -9.828000000    -0.479000000
H    -3.011000000    -8.738000000    -0.857000000
O     1.605000000    -5.800000000     6.365000000
H     2.074000000    -4.987000000     6.554000000
H     1.628000000    -6.287000000     7.188000000
O     2.449000000    -7.000000000     2.051000000
H     2.137000000    -7.507000000     1.301000000
H     1.820000000    -6.283000000     2.133000000
O     0.887000000    -6.249000000    -1.968000000
H     0.362000000    -5.922000000    -1.238000000
H     1.672000000    -5.701000000    -1.964000000
O     3.121000000    -1.876000000    -1.215000000
H     2.579000000    -1.321000000    -1.776000000
H     2.571000000    -2.055000000    -0.452000000
O     6.219000000    -3.548000000     3.917000000
H     5.293000000    -3.713000000     3.737000000
H     6.222000000    -2.752000000     4.448000000
