218
-1469.65056
C    -1.900000000    -0.205000000     5.495000000
H    -2.904000000     0.106000000     5.218000000
C    -0.774000000     0.642000000     5.175000000
C     0.540000000     0.280000000     5.543000000
H     1.341000000     0.937000000     5.213000000
C    -1.060000000     1.772000000     4.252000000
O    -2.428000000     2.220000000     4.301000000
H    -0.882000000     1.272000000     3.288000000
O    -0.118000000     2.844000000     4.515000000
C     0.379000000     3.488000000     3.379000000
C     1.721000000     3.138000000     2.958000000
H     2.286000000     2.471000000     3.604000000
C     2.220000000     3.591000000     1.723000000
O     3.403000000     3.013000000     1.332000000
C     1.532000000     4.562000000     1.016000000
C     2.205000000     5.138000000    -0.321000000
H     1.822000000     6.158000000    -0.385000000
C     1.903000000     4.281000000    -1.546000000
C     0.918000000     4.554000000    -2.504000000
H     0.261000000     5.340000000    -2.142000000
H     3.288000000     5.133000000    -0.185000000
C     0.262000000     4.920000000     1.443000000
H    -0.328000000     5.582000000     0.813000000
C    -0.343000000     4.380000000     2.607000000
C    -1.818000000     4.684000000     2.842000000
H    -2.054000000     5.706000000     2.537000000
H    -2.001000000     4.616000000     3.917000000
C    -2.728000000     3.526000000     2.295000000
C    -3.258000000     3.708000000     1.004000000
H    -3.051000000     4.639000000     0.483000000
C    -2.964000000     2.395000000     3.004000000
C    -3.776000000     1.395000000     2.446000000
H    -3.891000000     0.490000000     3.038000000
C    -4.250000000     1.513000000     1.181000000
O    -4.724000000     0.340000000     0.576000000
C    -3.791000000    -0.244000000    -0.333000000
C    -3.803000000    -1.781000000    -0.178000000
C    -3.634000000    -2.683000000    -1.284000000
H    -3.275000000    -2.269000000    -2.223000000
C    -3.967000000    -2.294000000     1.133000000
H    -4.037000000    -1.563000000     1.934000000
O    -4.132000000     0.127000000    -1.691000000
H    -2.743000000    -0.008000000    -0.095000000
C    -4.025000000     2.652000000     0.425000000
C    -4.464000000     2.883000000    -0.989000000
H    -4.622000000     3.940000000    -1.212000000
H    -5.454000000     2.481000000    -1.212000000
C    -3.399000000     2.385000000    -1.971000000
C    -2.463000000     3.295000000    -2.527000000
H    -2.450000000     4.334000000    -2.208000000
C    -3.393000000     1.049000000    -2.280000000
C    -2.637000000     0.634000000    -3.302000000
H    -2.620000000    -0.436000000    -3.492000000
C    -1.711000000     1.486000000    -3.974000000
O    -0.993000000     0.839000000    -4.856000000
C     0.357000000     0.583000000    -4.477000000
C     0.845000000    -0.698000000    -5.001000000
C     0.028000000    -1.773000000    -4.992000000
H    -1.032000000    -1.577000000    -4.850000000
C     2.265000000    -0.922000000    -5.187000000
H     2.994000000    -0.118000000    -5.126000000
O     1.196000000     1.694000000    -4.857000000
H     0.449000000     0.558000000    -3.381000000
C    -1.653000000     2.856000000    -3.581000000
C    -0.647000000     3.815000000    -4.298000000
H    -1.006000000     4.835000000    -4.149000000
H    -0.590000000     3.664000000    -5.378000000
C     0.728000000     3.699000000    -3.617000000
C     1.508000000     2.597000000    -3.870000000
C     2.513000000     2.326000000    -2.915000000
H     3.040000000     1.376000000    -2.940000000
C     2.741000000     3.190000000    -1.800000000
O     3.737000000     2.718000000    -0.976000000
C     3.309000000     2.071000000     0.256000000
H     2.267000000     1.731000000     0.161000000
C     4.159000000     0.837000000     0.387000000
C     4.031000000     0.147000000     1.562000000
H     3.336000000     0.434000000     2.347000000
C     4.834000000     0.256000000    -0.694000000
H     4.862000000     0.725000000    -1.675000000
C     5.563000000    -0.906000000    -0.493000000
O     6.234000000    -1.515000000    -1.551000000
C     5.354000000    -1.647000000     0.681000000
H     5.861000000    -2.592000000     0.862000000
C     4.530000000    -1.116000000     1.671000000
O     4.139000000    -1.990000000     2.696000000
C     4.236000000    -1.627000000     4.035000000
C     3.186000000    -1.867000000     4.847000000
H     2.333000000    -2.373000000     4.402000000
C     5.302000000    -0.881000000     4.525000000
H     6.148000000    -0.705000000     3.865000000
C     5.323000000    -0.402000000     5.822000000
H     6.201000000     0.023000000     6.301000000
C     4.164000000    -0.484000000     6.552000000
H     4.010000000    -0.086000000     7.552000000
C     3.069000000    -1.215000000     6.082000000
O     1.893000000    -1.315000000     6.811000000
C     0.688000000    -0.946000000     6.240000000
C    -0.407000000    -1.697000000     6.568000000
H    -0.136000000    -2.541000000     7.198000000
C    -1.750000000    -1.354000000     6.228000000
O    -2.826000000    -2.111000000     6.632000000
C    -3.788000000    -2.362000000     5.750000000
C    -3.409000000    -3.055000000     4.641000000
H    -2.375000000    -3.350000000     4.484000000
C    -5.096000000    -1.942000000     5.977000000
H    -5.416000000    -1.362000000     6.839000000
C    -6.038000000    -2.240000000     5.036000000
H    -7.089000000    -1.975000000     5.121000000
C    -5.674000000    -2.964000000     3.884000000
H    -6.444000000    -3.169000000     3.145000000
C    -4.381000000    -3.402000000     3.704000000
O    -4.022000000    -4.112000000     2.586000000
C    -3.916000000    -3.726000000     1.301000000
C    -3.818000000    -4.590000000     0.224000000
H    -3.690000000    -5.654000000     0.406000000
C    -3.671000000    -4.063000000    -1.088000000
O    -3.370000000    -4.903000000    -2.058000000
C    -3.185000000    -4.514000000    -3.359000000
C    -1.937000000    -4.381000000    -3.835000000
H    -1.108000000    -4.466000000    -3.137000000
C    -4.268000000    -4.415000000    -4.267000000
H    -5.286000000    -4.451000000    -3.887000000
C    -3.990000000    -4.288000000    -5.604000000
H    -4.882000000    -4.245000000    -6.224000000
C    -2.688000000    -4.088000000    -6.090000000
H    -2.521000000    -3.870000000    -7.142000000
C    -1.639000000    -4.108000000    -5.195000000
O    -0.386000000    -4.074000000    -5.619000000
C     0.495000000    -3.071000000    -5.280000000
C     1.827000000    -3.296000000    -5.604000000
H     2.171000000    -4.276000000    -5.926000000
C     2.715000000    -2.237000000    -5.470000000
O     4.029000000    -2.474000000    -5.664000000
C     5.095000000    -1.909000000    -4.975000000
C     6.316000000    -1.690000000    -5.657000000
H     6.465000000    -1.792000000    -6.729000000
C     7.415000000    -1.115000000    -4.956000000
H     8.340000000    -0.904000000    -5.486000000
C     7.270000000    -0.933000000    -3.542000000
H     8.070000000    -0.516000000    -2.936000000
C     6.141000000    -1.333000000    -2.903000000
C     5.041000000    -1.777000000    -3.600000000
H     4.108000000    -2.075000000    -3.129000000
C     0.827000000    -2.425000000    -0.407000000
H     1.536000000    -2.932000000    -1.056000000
C     0.646000000    -1.055000000    -0.567000000
H     1.126000000    -0.557000000    -1.406000000
C    -0.117000000    -0.393000000     0.385000000
C    -0.315000000     1.104000000     0.340000000
H     0.220000000     1.529000000     1.192000000
H     0.019000000     1.604000000    -0.571000000
H    -1.338000000     1.482000000     0.400000000
C    -0.681000000    -1.050000000     1.465000000
H    -1.290000000    -0.494000000     2.173000000
C    -0.548000000    -2.420000000     1.625000000
H    -0.922000000    -2.963000000     2.489000000
C     0.226000000    -3.112000000     0.645000000
C     0.604000000    -4.540000000     0.862000000
O     0.026000000    -5.172000000     1.746000000
O     1.424000000    -5.087000000     0.102000000
O     1.081000000    -6.230000000     6.151000000
H     1.619000000    -6.801000000     6.700000000
H     0.499000000    -5.785000000     6.767000000
O    -1.500000000    -6.471000000    -0.431000000
H    -2.201000000    -5.952000000    -0.825000000
H    -1.308000000    -6.027000000     0.394000000
O     0.724000000    -8.098000000    -0.652000000
H     0.935000000    -8.002000000     0.277000000
H     0.017000000    -7.471000000    -0.804000000
O     4.313000000    -8.244000000     0.245000000
H     4.572000000    -7.336000000     0.399000000
H     3.937000000    -8.531000000     1.077000000
O    -2.160000000    -8.316000000    -3.403000000
H    -1.218000000    -8.159000000    -3.465000000
H    -2.508000000    -7.527000000    -2.987000000
O     3.841000000    -4.812000000     0.912000000
H     3.652000000    -4.391000000     1.751000000
H     2.982000000    -4.939000000     0.509000000
O    -1.325000000    -9.958000000     0.431000000
H    -0.968000000   -10.676000000    -0.093000000
H    -0.734000000    -9.224000000     0.265000000
O    -0.481000000    -8.391000000     4.568000000
H     0.363000000    -8.115000000     4.926000000
H    -1.016000000    -7.597000000     4.576000000
O     2.174000000    -9.881000000    -2.615000000
H     1.522000000    -9.708000000    -1.936000000
H     2.797000000    -9.158000000    -2.537000000
O     0.405000000    -7.262000000    -4.954000000
H     0.562000000    -6.531000000    -4.356000000
H     0.691000000    -6.939000000    -5.808000000
O    -2.140000000    -6.257000000     3.644000000
H    -1.549000000    -5.729000000     3.107000000
H    -3.004000000    -5.874000000     3.496000000
O     6.687000000    -5.169000000     0.651000000
H     7.264000000    -4.924000000     1.374000000
H     5.804000000    -5.093000000     1.012000000
O     2.986000000    -9.712000000     1.949000000
H     2.196000000   -10.232000000     1.800000000
H     2.870000000    -9.344000000     2.825000000
O     0.732000000    -7.810000000     2.073000000
H     0.052000000    -8.093000000     2.684000000
H     0.478000000    -6.921000000     1.826000000
O     1.529000000    -5.327000000    -2.726000000
H     2.307000000    -5.875000000    -2.619000000
H     1.214000000    -5.183000000    -1.834000000
O     3.695000000    -7.549000000    -2.177000000
H     4.092000000    -6.692000000    -2.021000000
H     3.823000000    -8.025000000    -1.357000000
O     1.830000000    -4.984000000     3.488000000
H     1.153000000    -5.187000000     2.842000000
H     1.423000000    -5.184000000     4.331000000
O     4.552000000    -5.271000000     4.140000000
H     3.762000000    -5.450000000     3.629000000
H     4.225000000    -4.979000000     4.991000000
O     4.613000000    -5.136000000    -1.985000000
H     4.156000000    -4.721000000    -1.253000000
H     5.525000000    -4.865000000    -1.882000000
