218
-1487.16732
C     0.054000000     0.514000000     4.944000000
H    -1.018000000     0.573000000     4.770000000
C     0.926000000     1.465000000     4.319000000
C     2.281000000     1.276000000     4.479000000
H     2.868000000     2.062000000     4.011000000
C     0.357000000     2.561000000     3.383000000
O    -0.955000000     2.976000000     3.821000000
H     0.230000000     2.157000000     2.368000000
O     1.162000000     3.713000000     3.131000000
C     1.356000000     4.065000000     1.783000000
C     2.533000000     3.683000000     1.125000000
H     3.243000000     3.082000000     1.687000000
C     2.748000000     4.069000000    -0.191000000
O     3.845000000     3.436000000    -0.790000000
C     1.719000000     4.695000000    -0.917000000
C     1.806000000     4.903000000    -2.396000000
H     1.069000000     5.647000000    -2.704000000
C     1.303000000     3.689000000    -3.155000000
C    -0.055000000     3.526000000    -3.450000000
H    -0.710000000     4.335000000    -3.137000000
H     2.796000000     5.120000000    -2.802000000
C     0.537000000     5.060000000    -0.240000000
H    -0.266000000     5.633000000    -0.695000000
C     0.387000000     4.691000000     1.096000000
C    -0.925000000     5.086000000     1.793000000
H    -1.398000000     5.926000000     1.279000000
H    -0.775000000     5.359000000     2.839000000
C    -1.970000000     3.956000000     1.922000000
C    -2.993000000     3.839000000     0.991000000
H    -2.961000000     4.474000000     0.109000000
C    -1.927000000     2.922000000     2.913000000
C    -2.885000000     1.921000000     3.015000000
H    -2.905000000     1.168000000     3.798000000
C    -3.821000000     1.879000000     1.977000000
O    -4.458000000     0.624000000     1.895000000
C    -4.116000000    -0.382000000     0.887000000
C    -4.332000000    -1.774000000     1.567000000
C    -4.395000000    -2.899000000     0.764000000
H    -4.466000000    -2.729000000    -0.307000000
C    -4.155000000    -1.969000000     2.939000000
H    -4.118000000    -1.117000000     3.612000000
O    -4.930000000    -0.289000000    -0.292000000
H    -3.079000000    -0.267000000     0.540000000
C    -3.905000000     2.784000000     0.942000000
C    -4.859000000     2.628000000    -0.241000000
H    -5.009000000     3.595000000    -0.726000000
H    -5.851000000     2.224000000    -0.028000000
C    -4.256000000     1.758000000    -1.362000000
C    -3.525000000     2.377000000    -2.370000000
H    -3.450000000     3.461000000    -2.394000000
C    -4.397000000     0.369000000    -1.368000000
C    -3.842000000    -0.429000000    -2.382000000
H    -4.062000000    -1.489000000    -2.279000000
C    -3.051000000     0.206000000    -3.369000000
O    -2.335000000    -0.531000000    -4.289000000
C    -0.907000000    -0.711000000    -3.960000000
C    -0.545000000    -2.213000000    -4.036000000
C    -1.555000000    -3.167000000    -3.836000000
H    -2.582000000    -2.816000000    -3.781000000
C     0.791000000    -2.566000000    -4.228000000
H     1.589000000    -1.844000000    -4.380000000
O    -0.136000000     0.091000000    -4.852000000
H    -0.697000000    -0.450000000    -2.912000000
C    -2.917000000     1.608000000    -3.380000000
C    -2.014000000     2.329000000    -4.450000000
H    -2.370000000     3.358000000    -4.526000000
H    -2.044000000     1.754000000    -5.378000000
C    -0.591000000     2.358000000    -4.040000000
C     0.230000000     1.296000000    -4.364000000
C     1.625000000     1.485000000    -4.163000000
H     2.279000000     0.652000000    -4.410000000
C     2.139000000     2.639000000    -3.518000000
O     3.470000000     2.592000000    -3.061000000
C     3.588000000     2.235000000    -1.630000000
H     2.634000000     1.741000000    -1.392000000
C     4.635000000     1.147000000    -1.343000000
C     5.184000000     0.988000000    -0.088000000
H     4.829000000     1.613000000     0.728000000
C     5.041000000     0.284000000    -2.347000000
H     4.654000000     0.377000000    -3.358000000
C     5.973000000    -0.700000000    -2.093000000
O     6.296000000    -1.618000000    -3.131000000
C     6.509000000    -0.851000000    -0.791000000
H     7.101000000    -1.742000000    -0.595000000
C     5.963000000    -0.095000000     0.229000000
O     6.589000000    -0.159000000     1.460000000
C     6.253000000     0.496000000     2.619000000
C     5.470000000    -0.110000000     3.530000000
H     5.045000000    -1.094000000     3.352000000
C     6.835000000     1.703000000     2.964000000
H     7.460000000     2.309000000     2.314000000
C     6.552000000     2.327000000     4.145000000
H     6.933000000     3.316000000     4.385000000
C     5.548000000     1.813000000     4.987000000
H     5.291000000     2.320000000     5.914000000
C     5.048000000     0.618000000     4.656000000
O     4.117000000     0.088000000     5.571000000
C     2.793000000     0.267000000     5.367000000
C     1.923000000    -0.468000000     6.128000000
H     2.271000000    -1.139000000     6.910000000
C     0.549000000    -0.392000000     5.841000000
O    -0.242000000    -1.293000000     6.441000000
C    -1.576000000    -1.332000000     6.414000000
C    -2.247000000    -2.329000000     5.733000000
H    -1.668000000    -3.012000000     5.116000000
C    -2.342000000    -0.421000000     7.080000000
H    -1.864000000     0.440000000     7.541000000
C    -3.750000000    -0.502000000     7.050000000
H    -4.359000000     0.188000000     7.630000000
C    -4.428000000    -1.546000000     6.382000000
H    -5.510000000    -1.504000000     6.284000000
C    -3.622000000    -2.446000000     5.668000000
O    -4.139000000    -3.434000000     4.878000000
C    -4.145000000    -3.259000000     3.468000000
C    -4.082000000    -4.349000000     2.647000000
H    -3.886000000    -5.363000000     2.988000000
C    -4.196000000    -4.165000000     1.266000000
O    -4.055000000    -5.293000000     0.492000000
C    -4.205000000    -5.242000000    -0.913000000
C    -3.049000000    -5.392000000    -1.715000000
H    -2.101000000    -5.491000000    -1.192000000
C    -5.484000000    -5.043000000    -1.529000000
H    -6.369000000    -4.871000000    -0.922000000
C    -5.623000000    -4.982000000    -2.883000000
H    -6.601000000    -4.863000000    -3.341000000
C    -4.480000000    -5.167000000    -3.700000000
H    -4.548000000    -5.035000000    -4.777000000
C    -3.209000000    -5.394000000    -3.083000000
O    -2.149000000    -5.504000000    -3.951000000
C    -1.185000000    -4.521000000    -3.924000000
C     0.146000000    -4.894000000    -4.051000000
H     0.359000000    -5.952000000    -4.177000000
C     1.169000000    -3.927000000    -4.124000000
O     2.463000000    -4.354000000    -4.124000000
C     3.488000000    -3.565000000    -4.566000000
C     3.587000000    -3.323000000    -5.936000000
H     2.901000000    -3.778000000    -6.647000000
C     4.629000000    -2.474000000    -6.401000000
H     4.732000000    -2.256000000    -7.461000000
C     5.497000000    -1.896000000    -5.429000000
H     6.292000000    -1.224000000    -5.740000000
C     5.365000000    -2.127000000    -4.065000000
C     4.372000000    -3.017000000    -3.660000000
H     4.186000000    -3.377000000    -2.651000000
C     0.978000000    -2.299000000    -0.509000000
H     1.739000000    -2.724000000    -1.159000000
C     0.686000000    -0.945000000    -0.712000000
H     1.309000000    -0.383000000    -1.403000000
C    -0.220000000    -0.324000000     0.123000000
C    -0.472000000     1.172000000    -0.048000000
H     0.377000000     1.821000000     0.173000000
H    -0.903000000     1.420000000    -1.021000000
H    -1.351000000     1.407000000     0.556000000
C    -0.890000000    -1.036000000     1.133000000
H    -1.591000000    -0.494000000     1.763000000
C    -0.678000000    -2.431000000     1.243000000
H    -1.103000000    -2.964000000     2.089000000
C     0.257000000    -3.093000000     0.446000000
C     0.626000000    -4.558000000     0.569000000
O    -0.201000000    -5.377000000     0.925000000
O     1.723000000    -4.924000000     0.210000000
O     2.070000000    -3.629000000     4.015000000
H     2.994000000    -3.879000000     4.035000000
H     2.079000000    -2.692000000     3.821000000
O    -0.373000000    -7.754000000    -0.639000000
H    -0.168000000    -8.522000000    -0.105000000
H    -0.172000000    -7.008000000    -0.073000000
O    -0.898000000    -9.996000000     1.120000000
H    -0.707000000   -10.679000000     0.478000000
H    -1.053000000   -10.470000000     1.937000000
O    -0.154000000    -5.052000000     4.326000000
H     0.646000000    -4.532000000     4.254000000
H    -0.088000000    -5.691000000     3.617000000
O    -1.670000000    -5.844000000     6.477000000
H    -1.150000000    -5.311000000     5.875000000
H    -2.426000000    -6.121000000     5.960000000
O     4.754000000    -4.277000000     3.522000000
H     4.309000000    -4.987000000     3.058000000
H     5.286000000    -3.849000000     2.851000000
O     2.008000000    -8.010000000     2.888000000
H     1.998000000    -8.879000000     2.487000000
H     1.108000000    -7.873000000     3.185000000
O    -0.834000000    -8.844000000     4.872000000
H    -1.637000000    -9.293000000     4.607000000
H    -0.815000000    -8.051000000     4.336000000
O     6.600000000    -3.651000000     1.281000000
H     6.780000000    -4.348000000     0.649000000
H     5.765000000    -3.280000000     0.997000000
O    -1.777000000    -8.579000000    -2.775000000
H    -2.505000000    -8.060000000    -2.433000000
H    -1.070000000    -8.445000000    -2.144000000
O     4.974000000    -8.820000000    -1.138000000
H     4.275000000    -8.166000000    -1.122000000
H     5.553000000    -8.535000000    -1.845000000
O    -0.983000000    -7.198000000     2.670000000
H    -0.919000000    -6.510000000     2.008000000
H    -1.133000000    -8.000000000     2.169000000
O    -3.509000000    -8.710000000     1.012000000
H    -2.647000000    -9.064000000     0.793000000
H    -3.685000000    -9.035000000     1.895000000
O     3.751000000    -3.230000000     0.751000000
H     3.286000000    -2.465000000     1.090000000
H     3.061000000    -3.866000000     0.561000000
O     2.576000000    -4.122000000     6.585000000
H     1.887000000    -3.829000000     7.182000000
H     2.170000000    -4.096000000     5.719000000
O     3.484000000    -6.123000000     1.999000000
H     3.075000000    -6.897000000     2.385000000
H     2.798000000    -5.733000000     1.458000000
O     2.956000000    -6.914000000    -1.487000000
H     2.590000000    -6.547000000    -0.682000000
H     2.759000000    -6.261000000    -2.158000000
O     2.475000000    -1.107000000     2.170000000
H     2.669000000    -0.194000000     2.381000000
H     1.661000000    -1.069000000     1.668000000
O     6.033000000    -5.418000000    -0.703000000
H     5.839000000    -5.979000000    -1.454000000
H     5.883000000    -5.978000000     0.059000000
