218
-1431.09260
C    -1.482000000     0.961000000     4.714000000
H    -2.508000000     0.834000000     4.381000000
C    -0.680000000     1.997000000     4.323000000
C     0.619000000     2.101000000     4.877000000
H     1.199000000     2.991000000     4.646000000
C    -1.063000000     2.844000000     3.152000000
O    -2.455000000     3.231000000     3.106000000
H    -0.908000000     2.229000000     2.253000000
O    -0.286000000     4.024000000     3.020000000
C     0.303000000     4.215000000     1.804000000
C     1.618000000     3.792000000     1.591000000
H     2.088000000     3.274000000     2.424000000
C     2.275000000     3.929000000     0.358000000
O     3.535000000     3.465000000     0.195000000
C     1.593000000     4.532000000    -0.723000000
C     2.147000000     4.617000000    -2.164000000
H     1.609000000     5.423000000    -2.668000000
C     1.964000000     3.297000000    -2.911000000
C     0.783000000     3.180000000    -3.651000000
H     0.019000000     3.953000000    -3.682000000
H     3.198000000     4.914000000    -2.174000000
C     0.258000000     4.942000000    -0.544000000
H    -0.294000000     5.394000000    -1.364000000
C    -0.377000000     4.816000000     0.700000000
C    -1.820000000     5.190000000     0.925000000
H    -2.095000000     5.915000000     0.156000000
H    -1.955000000     5.761000000     1.846000000
C    -2.745000000     3.987000000     0.765000000
C    -3.369000000     3.825000000    -0.454000000
H    -3.117000000     4.557000000    -1.217000000
C    -3.051000000     3.132000000     1.823000000
C    -3.940000000     2.090000000     1.681000000
H    -4.197000000     1.468000000     2.535000000
C    -4.396000000     1.759000000     0.368000000
O    -5.094000000     0.632000000     0.131000000
C    -4.369000000    -0.452000000    -0.479000000
C    -4.452000000    -1.804000000     0.171000000
C    -4.120000000    -2.907000000    -0.560000000
H    -3.877000000    -2.765000000    -1.610000000
C    -4.835000000    -1.940000000     1.541000000
H    -4.999000000    -0.999000000     2.059000000
O    -4.686000000    -0.515000000    -1.978000000
H    -3.321000000    -0.121000000    -0.416000000
C    -4.115000000     2.671000000    -0.681000000
C    -4.602000000     2.400000000    -2.140000000
H    -4.764000000     3.352000000    -2.650000000
H    -5.626000000     2.020000000    -2.156000000
C    -3.683000000     1.501000000    -2.954000000
C    -2.818000000     2.002000000    -3.844000000
H    -2.702000000     3.078000000    -3.949000000
C    -3.768000000     0.078000000    -2.809000000
C    -2.925000000    -0.746000000    -3.600000000
H    -2.968000000    -1.831000000    -3.550000000
C    -1.893000000    -0.210000000    -4.380000000
O    -0.941000000    -1.091000000    -4.935000000
C     0.301000000    -1.160000000    -4.217000000
C     0.823000000    -2.579000000    -4.145000000
C    -0.152000000    -3.584000000    -4.077000000
H    -1.196000000    -3.355000000    -4.273000000
C     2.150000000    -2.931000000    -3.816000000
H     3.025000000    -2.287000000    -3.836000000
O     1.327000000    -0.224000000    -4.840000000
H     0.093000000    -0.694000000    -3.242000000
C    -1.876000000     1.163000000    -4.488000000
C    -0.650000000     1.801000000    -5.239000000
H    -0.948000000     2.754000000    -5.681000000
H    -0.346000000     1.087000000    -6.007000000
C     0.586000000     1.994000000    -4.384000000
C     1.581000000     1.014000000    -4.319000000
C     2.786000000     1.158000000    -3.581000000
H     3.558000000     0.393000000    -3.554000000
C     2.955000000     2.283000000    -2.804000000
O     3.952000000     2.375000000    -1.933000000
C     3.637000000     2.222000000    -0.475000000
H     2.651000000     1.733000000    -0.499000000
C     4.621000000     1.243000000     0.244000000
C     4.908000000     1.392000000     1.615000000
H     4.487000000     2.206000000     2.200000000
C     5.163000000     0.156000000    -0.413000000
H     5.126000000     0.141000000    -1.499000000
C     5.868000000    -0.771000000     0.306000000
O     6.466000000    -1.843000000    -0.319000000
C     6.138000000    -0.609000000     1.684000000
H     6.832000000    -1.305000000     2.147000000
C     5.608000000     0.458000000     2.365000000
O     5.799000000     0.512000000     3.802000000
C     5.217000000     1.390000000     4.662000000
C     3.989000000     1.153000000     5.302000000
H     3.418000000     0.272000000     5.020000000
C     5.772000000     2.656000000     4.847000000
H     6.662000000     2.924000000     4.284000000
C     5.288000000     3.579000000     5.744000000
H     5.894000000     4.474000000     5.853000000
C     4.142000000     3.254000000     6.433000000
H     3.658000000     4.010000000     7.045000000
C     3.418000000     2.080000000     6.136000000
O     2.182000000     1.766000000     6.735000000
C     1.039000000     1.339000000     5.962000000
C     0.205000000     0.328000000     6.334000000
H     0.522000000    -0.261000000     7.191000000
C    -1.000000000     0.171000000     5.728000000
O    -1.656000000    -0.909000000     6.170000000
C    -2.944000000    -1.149000000     5.863000000
C    -3.255000000    -2.029000000     4.808000000
H    -2.535000000    -2.663000000     4.298000000
C    -3.941000000    -0.573000000     6.644000000
H    -3.770000000     0.034000000     7.530000000
C    -5.278000000    -0.936000000     6.333000000
H    -6.043000000    -0.424000000     6.912000000
C    -5.555000000    -1.715000000     5.228000000
H    -6.563000000    -1.744000000     4.822000000
C    -4.561000000    -2.348000000     4.534000000
O    -4.905000000    -3.274000000     3.547000000
C    -4.693000000    -3.154000000     2.191000000
C    -4.476000000    -4.238000000     1.377000000
H    -4.646000000    -5.190000000     1.874000000
C    -4.241000000    -4.159000000     0.001000000
O    -4.183000000    -5.362000000    -0.719000000
C    -3.772000000    -5.530000000    -2.016000000
C    -2.393000000    -5.481000000    -2.372000000
H    -1.698000000    -5.298000000    -1.557000000
C    -4.645000000    -5.954000000    -3.015000000
H    -5.701000000    -6.016000000    -2.764000000
C    -4.202000000    -6.297000000    -4.250000000
H    -4.889000000    -6.769000000    -4.949000000
C    -2.862000000    -6.168000000    -4.557000000
H    -2.535000000    -6.448000000    -5.555000000
C    -1.943000000    -5.825000000    -3.613000000
O    -0.637000000    -5.912000000    -4.007000000
C     0.255000000    -4.906000000    -3.868000000
C     1.540000000    -5.230000000    -3.560000000
H     1.712000000    -6.292000000    -3.408000000
C     2.516000000    -4.231000000    -3.496000000
O     3.818000000    -4.607000000    -3.226000000
C     4.758000000    -3.666000000    -3.074000000
C     5.656000000    -3.340000000    -4.125000000
H     5.541000000    -3.786000000    -5.110000000
C     6.784000000    -2.579000000    -3.914000000
H     7.427000000    -2.283000000    -4.739000000
C     7.106000000    -2.119000000    -2.659000000
H     7.984000000    -1.484000000    -2.567000000
C     6.233000000    -2.328000000    -1.574000000
C     5.120000000    -3.116000000    -1.778000000
H     4.471000000    -3.316000000    -0.929000000
C     1.568000000    -2.015000000    -0.454000000
H     2.653000000    -2.061000000    -0.503000000
C     0.991000000    -0.734000000    -0.629000000
H     1.714000000     0.020000000    -0.930000000
C    -0.233000000    -0.410000000    -0.252000000
C    -0.716000000     1.024000000    -0.440000000
H    -1.223000000     1.137000000    -1.400000000
H    -1.444000000     1.322000000     0.317000000
H     0.153000000     1.676000000    -0.326000000
C    -0.990000000    -1.373000000     0.360000000
H    -1.897000000    -0.993000000     0.824000000
C    -0.544000000    -2.718000000     0.467000000
H    -1.182000000    -3.456000000     0.946000000
C     0.769000000    -3.004000000     0.139000000
C     1.307000000    -4.378000000     0.576000000
O     0.648000000    -5.292000000     1.000000000
O     2.489000000    -4.507000000     0.615000000
O     7.301000000    -5.632000000    -0.957000000
H     6.493000000    -5.134000000    -1.079000000
H     7.480000000    -6.012000000    -1.817000000
O     3.460000000    -7.032000000    -5.697000000
H     3.429000000    -6.543000000    -4.875000000
H     2.699000000    -6.723000000    -6.189000000
O    -1.541000000    -6.589000000     1.483000000
H    -0.806000000    -6.066000000     1.163000000
H    -2.259000000    -6.384000000     0.884000000
O     4.539000000    -4.638000000     2.372000000
H     3.830000000    -4.413000000     1.769000000
H     4.274000000    -4.253000000     3.208000000
O     0.285000000   -10.606000000     0.605000000
H     0.985000000   -10.765000000    -0.028000000
H    -0.338000000   -10.049000000     0.139000000
O     2.314000000    -9.695000000     2.499000000
H     1.687000000    -9.988000000     1.837000000
H     2.124000000    -8.764000000     2.613000000
O     1.970000000   -10.202000000    -1.641000000
H     2.496000000   -10.123000000    -2.437000000
H     1.332000000    -9.492000000    -1.704000000
O     5.018000000    -8.761000000     2.023000000
H     4.199000000    -9.254000000     2.059000000
H     4.746000000    -7.855000000     1.874000000
O    -0.217000000    -8.063000000     4.171000000
H     0.074000000    -7.605000000     3.383000000
H    -0.670000000    -7.394000000     4.684000000
O     1.019000000    -7.241000000    -0.735000000
H     0.927000000    -6.501000000    -0.136000000
H     1.939000000    -7.495000000    -0.663000000
O     2.747000000    -6.164000000     4.813000000
H     3.692000000    -6.173000000     4.961000000
H     2.368000000    -6.061000000     5.686000000
O     4.554000000    -1.986000000     4.069000000
H     4.271000000    -1.148000000     3.703000000
H     4.027000000    -2.091000000     4.862000000
O     5.900000000    -8.130000000    -1.577000000
H     5.040000000    -7.820000000    -1.293000000
H     6.522000000    -7.589000000    -1.091000000
O     4.264000000    -6.058000000    -0.474000000
H     3.615000000    -5.621000000     0.078000000
H     4.188000000    -5.622000000    -1.323000000
O     2.191000000    -0.512000000     2.800000000
H     2.313000000    -1.036000000     2.009000000
H     1.244000000    -0.389000000     2.863000000
O    -3.019000000    -8.344000000     2.858000000
H    -3.536000000    -8.567000000     2.084000000
H    -2.343000000    -7.750000000     2.532000000
O     6.896000000    -5.797000000     1.784000000
H     6.938000000    -5.803000000     0.828000000
H     6.180000000    -5.196000000     1.989000000
O     1.744000000    -6.972000000     2.574000000
H     1.405000000    -6.301000000     1.981000000
H     2.230000000    -6.482000000     3.237000000
O    -1.341000000    -8.750000000    -0.778000000
H    -2.128000000    -8.510000000    -0.288000000
H    -0.782000000    -7.975000000    -0.727000000
