218
-1453.35720
C    -0.599000000     2.151000000     4.663000000
H    -1.574000000     2.179000000     4.183000000
C     0.518000000     2.611000000     3.974000000
C     1.777000000     2.335000000     4.464000000
H     2.616000000     2.476000000     3.788000000
C     0.426000000     3.236000000     2.584000000
O    -0.767000000     4.016000000     2.458000000
H     0.279000000     2.377000000     1.913000000
O     1.525000000     4.041000000     2.269000000
C     2.042000000     4.013000000     1.006000000
C     3.124000000     3.210000000     0.885000000
H     3.676000000     2.807000000     1.730000000
C     3.650000000     3.015000000    -0.385000000
O     4.621000000     2.100000000    -0.456000000
C     3.041000000     3.626000000    -1.480000000
C     3.564000000     3.315000000    -2.880000000
H     3.293000000     4.196000000    -3.467000000
C     2.894000000     2.063000000    -3.426000000
C     1.767000000     2.165000000    -4.235000000
H     1.413000000     3.147000000    -4.538000000
H     4.653000000     3.324000000    -2.800000000
C     2.016000000     4.513000000    -1.381000000
H     1.529000000     4.971000000    -2.239000000
C     1.432000000     4.652000000    -0.118000000
C     0.138000000     5.458000000     0.121000000
H     0.106000000     6.087000000    -0.771000000
H     0.214000000     6.169000000     0.946000000
C    -1.033000000     4.569000000     0.131000000
C    -1.715000000     4.324000000    -1.028000000
H    -1.535000000     5.035000000    -1.831000000
C    -1.499000000     3.968000000     1.311000000
C    -2.584000000     3.105000000     1.284000000
H    -2.685000000     2.438000000     2.136000000
C    -3.281000000     2.896000000     0.123000000
O    -4.220000000     1.972000000     0.200000000
C    -3.987000000     0.676000000    -0.490000000
C    -4.523000000    -0.399000000     0.399000000
C    -5.145000000    -1.541000000    -0.161000000
H    -5.515000000    -1.627000000    -1.179000000
C    -4.186000000    -0.455000000     1.742000000
H    -3.618000000     0.358000000     2.187000000
O    -4.561000000     0.606000000    -1.846000000
H    -2.905000000     0.546000000    -0.643000000
C    -2.853000000     3.523000000    -1.002000000
C    -3.662000000     3.377000000    -2.331000000
H    -3.494000000     4.249000000    -2.966000000
H    -4.733000000     3.317000000    -2.127000000
C    -3.186000000     2.179000000    -3.140000000
C    -2.107000000     2.251000000    -4.080000000
H    -1.511000000     3.156000000    -4.167000000
C    -3.693000000     0.905000000    -2.931000000
C    -3.259000000    -0.217000000    -3.592000000
H    -3.672000000    -1.199000000    -3.375000000
C    -2.172000000    -0.146000000    -4.471000000
O    -1.535000000    -1.330000000    -4.730000000
C    -0.550000000    -1.586000000    -3.697000000
C    -0.712000000    -2.968000000    -3.193000000
C    -1.943000000    -3.762000000    -3.134000000
H    -2.821000000    -3.227000000    -3.487000000
C     0.387000000    -3.545000000    -2.610000000
H     1.333000000    -3.011000000    -2.563000000
O     0.713000000    -1.381000000    -4.345000000
H    -0.655000000    -0.884000000    -2.857000000
C    -1.561000000     1.137000000    -4.725000000
C    -0.243000000     1.253000000    -5.471000000
H    -0.239000000     2.291000000    -5.809000000
H    -0.227000000     0.554000000    -6.310000000
C     1.024000000     1.026000000    -4.600000000
C     1.474000000    -0.288000000    -4.221000000
C     2.597000000    -0.353000000    -3.369000000
H     2.858000000    -1.353000000    -3.031000000
C     3.261000000     0.811000000    -3.021000000
O     4.272000000     0.597000000    -2.207000000
C     4.143000000     0.784000000    -0.793000000
H     3.074000000     0.697000000    -0.549000000
C     4.756000000    -0.350000000    -0.008000000
C     5.048000000    -0.105000000     1.329000000
H     4.926000000     0.898000000     1.729000000
C     4.914000000    -1.643000000    -0.558000000
H     4.767000000    -1.847000000    -1.615000000
C     5.329000000    -2.669000000     0.307000000
O     5.681000000    -3.908000000    -0.229000000
C     5.852000000    -2.329000000     1.569000000
H     6.313000000    -3.143000000     2.123000000
C     5.617000000    -1.086000000     2.103000000
O     5.978000000    -0.864000000     3.430000000
C     5.780000000     0.270000000     4.068000000
C     4.659000000     0.444000000     4.759000000
H     3.850000000    -0.275000000     4.868000000
C     6.726000000     1.316000000     3.989000000
H     7.661000000     1.246000000     3.440000000
C     6.451000000     2.519000000     4.738000000
H     7.244000000     3.261000000     4.688000000
C     5.259000000     2.722000000     5.405000000
H     5.151000000     3.615000000     6.015000000
C     4.341000000     1.634000000     5.445000000
O     3.231000000     1.703000000     6.236000000
C     1.932000000     1.720000000     5.704000000
C     0.809000000     1.449000000     6.464000000
H     0.890000000     1.000000000     7.451000000
C    -0.473000000     1.569000000     5.937000000
O    -1.621000000     1.270000000     6.691000000
C    -2.836000000     1.126000000     6.066000000
C    -2.952000000    -0.034000000     5.365000000
H    -2.098000000    -0.702000000     5.290000000
C    -3.843000000     2.132000000     6.042000000
H    -3.726000000     3.059000000     6.597000000
C    -4.989000000     1.951000000     5.301000000
H    -5.750000000     2.727000000     5.332000000
C    -5.131000000     0.706000000     4.582000000
H    -5.996000000     0.525000000     3.948000000
C    -4.065000000    -0.247000000     4.564000000
O    -4.196000000    -1.437000000     3.830000000
C    -4.501000000    -1.491000000     2.547000000
C    -5.258000000    -2.551000000     2.050000000
H    -5.662000000    -3.298000000     2.729000000
C    -5.494000000    -2.652000000     0.678000000
O    -6.142000000    -3.775000000     0.199000000
C    -5.872000000    -4.399000000    -1.039000000
C    -4.600000000    -4.808000000    -1.392000000
H    -3.778000000    -4.751000000    -0.684000000
C    -6.891000000    -4.521000000    -1.973000000
H    -7.866000000    -4.081000000    -1.776000000
C    -6.715000000    -4.966000000    -3.271000000
H    -7.534000000    -5.059000000    -3.980000000
C    -5.391000000    -5.357000000    -3.538000000
H    -5.144000000    -5.866000000    -4.466000000
C    -4.373000000    -5.403000000    -2.594000000
O    -3.090000000    -5.847000000    -2.972000000
C    -1.983000000    -5.076000000    -2.731000000
C    -0.846000000    -5.672000000    -2.160000000
H    -0.877000000    -6.694000000    -1.791000000
C     0.313000000    -4.904000000    -2.073000000
O     1.380000000    -5.321000000    -1.329000000
C     2.645000000    -5.086000000    -1.760000000
C     3.049000000    -5.375000000    -3.024000000
H     2.331000000    -5.843000000    -3.692000000
C     4.379000000    -5.138000000    -3.404000000
H     4.588000000    -5.350000000    -4.449000000
C     5.270000000    -4.651000000    -2.517000000
H     6.308000000    -4.622000000    -2.837000000
C     4.887000000    -4.447000000    -1.200000000
C     3.515000000    -4.538000000    -0.861000000
H     3.201000000    -4.277000000     0.146000000
C     1.970000000    -1.434000000     2.348000000
H     2.605000000    -1.194000000     3.197000000
C     1.451000000    -0.453000000     1.565000000
H     1.647000000     0.577000000     1.849000000
C     0.665000000    -0.700000000     0.463000000
C     0.067000000     0.452000000    -0.307000000
H     0.158000000     1.370000000     0.278000000
H     0.718000000     0.480000000    -1.183000000
H    -0.981000000     0.289000000    -0.568000000
C     0.217000000    -2.002000000     0.232000000
H    -0.509000000    -2.239000000    -0.541000000
C     0.773000000    -3.023000000     0.994000000
H     0.555000000    -4.074000000     0.817000000
C     1.613000000    -2.798000000     2.125000000
C     2.326000000    -3.816000000     2.941000000
O     2.451000000    -4.932000000     2.537000000
O     2.711000000    -3.521000000     4.069000000
O     3.683000000    -5.122000000     7.575000000
H     3.726000000    -4.197000000     7.818000000
H     2.913000000    -5.186000000     7.010000000
O    -1.173000000    -4.049000000     5.656000000
H    -1.194000000    -4.047000000     4.699000000
H    -2.092000000    -3.979000000     5.916000000
O     3.017000000    -1.814000000     8.093000000
H     3.434000000    -2.091000000     7.278000000
H     2.153000000    -1.501000000     7.826000000
O     1.769000000    -7.007000000     1.093000000
H     2.076000000    -6.342000000     1.709000000
H     1.714000000    -6.549000000     0.254000000
O     2.093000000    -8.414000000     5.345000000
H     2.795000000    -8.180000000     4.737000000
H     2.514000000    -8.422000000     6.204000000
O     5.196000000    -7.588000000     1.399000000
H     5.200000000    -7.175000000     2.262000000
H     4.281000000    -7.551000000     1.120000000
O     6.647000000    -7.026000000     5.211000000
H     7.310000000    -7.097000000     4.524000000
H     5.824000000    -6.903000000     4.738000000
O     6.907000000    -6.468000000    -0.503000000
H     6.777000000    -5.543000000    -0.291000000
H     6.435000000    -6.940000000     0.183000000
O     1.652000000    -5.082000000     5.887000000
H     0.703000000    -5.197000000     5.931000000
H     1.810000000    -4.733000000     5.010000000
O     4.414000000    -2.567000000     5.884000000
H     5.261000000    -2.962000000     5.678000000
H     3.834000000    -2.867000000     5.184000000
O    -2.386000000    -6.817000000     2.997000000
H    -1.448000000    -6.887000000     3.175000000
H    -2.498000000    -7.228000000     2.140000000
O     8.168000000    -5.130000000     2.787000000
H     7.853000000    -4.370000000     3.277000000
H     9.120000000    -5.027000000     2.772000000
O     6.375000000    -4.630000000     7.016000000
H     6.798000000    -5.386000000     6.607000000
H     5.461000000    -4.894000000     7.118000000
O    -0.332000000    -1.666000000     8.332000000
H    -0.216000000    -1.750000000     7.385000000
H    -1.278000000    -1.585000000     8.451000000
O     0.661000000    -2.266000000     5.958000000
H     0.136000000    -3.055000000     5.824000000
H     1.513000000    -2.478000000     5.577000000
O     0.200000000    -7.399000000     3.334000000
H     0.668000000    -7.693000000     4.115000000
H     0.856000000    -7.424000000     2.638000000
O     4.101000000    -6.118000000     4.491000000
H     3.715000000    -5.614000000     3.775000000
H     3.419000000    -6.144000000     5.162000000
O    -2.058000000    -3.785000000     2.995000000
H    -2.999000000    -3.950000000     3.046000000
H    -1.874000000    -3.730000000     2.057000000
O     1.734000000    -9.770000000     0.160000000
H     1.065000000   -10.139000000     0.737000000
H     1.772000000    -8.844000000     0.399000000
