218
-1459.69353
C     0.805000000     2.781000000     4.348000000
H    -0.261000000     2.982000000     4.275000000
C     1.807000000     2.984000000     3.351000000
C     3.163000000     2.721000000     3.612000000
H     3.896000000     2.948000000     2.842000000
C     1.314000000     3.367000000     1.929000000
O     0.070000000     4.274000000     2.110000000
H     1.100000000     2.425000000     1.402000000
O     2.300000000     4.142000000     1.229000000
C     2.430000000     4.038000000    -0.107000000
C     3.481000000     3.278000000    -0.639000000
H     4.281000000     2.963000000     0.025000000
C     3.493000000     2.885000000    -1.972000000
O     4.275000000     1.853000000    -2.286000000
C     2.461000000     3.256000000    -2.825000000
C     2.426000000     2.773000000    -4.316000000
H     1.996000000     3.598000000    -4.888000000
C     1.604000000     1.473000000    -4.450000000
C     0.229000000     1.641000000    -4.721000000
H    -0.061000000     2.654000000    -4.988000000
H     3.460000000     2.556000000    -4.591000000
C     1.488000000     4.117000000    -2.334000000
H     0.725000000     4.515000000    -2.997000000
C     1.390000000     4.482000000    -1.000000000
C     0.248000000     5.416000000    -0.546000000
H    -0.132000000     5.970000000    -1.408000000
H     0.593000000     6.206000000     0.125000000
C    -0.911000000     4.632000000     0.017000000
C    -2.013000000     4.444000000    -0.844000000
H    -2.057000000     4.912000000    -1.824000000
C    -0.922000000     4.043000000     1.272000000
C    -2.007000000     3.202000000     1.644000000
H    -1.947000000     2.683000000     2.597000000
C    -3.043000000     2.994000000     0.781000000
O    -3.974000000     2.044000000     1.197000000
C    -3.778000000     0.773000000     0.670000000
C    -3.955000000    -0.244000000     1.808000000
C    -4.644000000    -1.400000000     1.576000000
H    -5.120000000    -1.609000000     0.621000000
C    -3.405000000    -0.004000000     3.066000000
H    -2.826000000     0.885000000     3.302000000
O    -4.664000000     0.561000000    -0.453000000
H    -2.745000000     0.661000000     0.309000000
C    -3.093000000     3.637000000    -0.495000000
C    -4.141000000     3.265000000    -1.585000000
H    -4.254000000     4.148000000    -2.217000000
H    -5.086000000     3.139000000    -1.053000000
C    -3.937000000     1.895000000    -2.362000000
C    -3.297000000     1.925000000    -3.637000000
H    -3.189000000     2.868000000    -4.166000000
C    -4.189000000     0.669000000    -1.735000000
C    -3.799000000    -0.472000000    -2.387000000
H    -3.923000000    -1.460000000    -1.952000000
C    -3.260000000    -0.516000000    -3.676000000
O    -2.921000000    -1.776000000    -4.069000000
C    -1.593000000    -2.255000000    -3.688000000
C    -1.587000000    -3.734000000    -3.223000000
C    -2.759000000    -4.233000000    -2.650000000
H    -3.545000000    -3.488000000    -2.550000000
C    -0.405000000    -4.510000000    -3.241000000
H     0.542000000    -4.118000000    -3.603000000
O    -0.740000000    -1.888000000    -4.743000000
H    -1.284000000    -1.668000000    -2.810000000
C    -2.889000000     0.711000000    -4.221000000
C    -1.961000000     0.717000000    -5.429000000
H    -2.133000000     1.679000000    -5.916000000
H    -2.255000000    -0.111000000    -6.077000000
C    -0.549000000     0.542000000    -4.979000000
C    -0.020000000    -0.725000000    -4.628000000
C     1.287000000    -0.883000000    -4.209000000
H     1.530000000    -1.890000000    -3.883000000
C     2.108000000     0.210000000    -4.116000000
O     3.325000000    -0.006000000    -3.639000000
C     3.632000000     0.519000000    -2.276000000
H     2.661000000     0.536000000    -1.759000000
C     4.383000000    -0.435000000    -1.355000000
C     5.254000000     0.068000000    -0.329000000
H     5.694000000     1.054000000    -0.458000000
C     4.083000000    -1.818000000    -1.340000000
H     3.494000000    -2.181000000    -2.178000000
C     4.547000000    -2.618000000    -0.372000000
O     4.036000000    -3.919000000    -0.234000000
C     5.388000000    -2.071000000     0.648000000
H     5.650000000    -2.654000000     1.528000000
C     5.732000000    -0.764000000     0.663000000
O     6.722000000    -0.313000000     1.576000000
C     6.599000000     0.776000000     2.293000000
C     5.691000000     0.927000000     3.301000000
H     4.903000000     0.216000000     3.533000000
C     7.552000000     1.862000000     2.106000000
H     8.260000000     1.873000000     1.282000000
C     7.527000000     2.936000000     2.969000000
H     8.243000000     3.745000000     2.849000000
C     6.644000000     3.023000000     4.046000000
H     6.530000000     3.929000000     4.635000000
C     5.757000000     2.017000000     4.204000000
O     4.868000000     2.131000000     5.250000000
C     3.533000000     2.419000000     4.947000000
C     2.560000000     2.285000000     5.923000000
H     2.894000000     1.936000000     6.897000000
C     1.258000000     2.417000000     5.623000000
O     0.435000000     2.112000000     6.662000000
C    -0.915000000     1.931000000     6.567000000
C    -1.363000000     0.782000000     6.068000000
H    -0.656000000    -0.042000000     6.011000000
C    -1.786000000     3.035000000     6.615000000
H    -1.438000000     4.019000000     6.918000000
C    -3.138000000     2.806000000     6.418000000
H    -3.770000000     3.646000000     6.693000000
C    -3.624000000     1.567000000     6.083000000
H    -4.696000000     1.442000000     5.954000000
C    -2.701000000     0.534000000     5.800000000
O    -3.159000000    -0.647000000     5.364000000
C    -3.689000000    -0.900000000     4.090000000
C    -4.383000000    -2.038000000     3.861000000
H    -4.528000000    -2.897000000     4.511000000
C    -4.753000000    -2.376000000     2.549000000
O    -5.343000000    -3.573000000     2.288000000
C    -5.604000000    -4.094000000     1.057000000
C    -4.637000000    -4.832000000     0.340000000
H    -3.662000000    -4.961000000     0.804000000
C    -6.857000000    -3.921000000     0.489000000
H    -7.666000000    -3.403000000     0.998000000
C    -7.154000000    -4.547000000    -0.708000000
H    -8.126000000    -4.414000000    -1.175000000
C    -6.215000000    -5.250000000    -1.394000000
H    -6.398000000    -5.692000000    -2.370000000
C    -4.946000000    -5.354000000    -0.928000000
O    -4.004000000    -5.978000000    -1.692000000
C    -2.771000000    -5.474000000    -2.049000000
C    -1.626000000    -6.258000000    -2.029000000
H    -1.652000000    -7.247000000    -1.579000000
C    -0.436000000    -5.759000000    -2.574000000
O     0.646000000    -6.582000000    -2.567000000
C     1.955000000    -6.072000000    -2.419000000
C     2.893000000    -6.346000000    -3.404000000
H     2.508000000    -6.923000000    -4.241000000
C     4.174000000    -5.903000000    -3.287000000
H     4.848000000    -6.119000000    -4.112000000
C     4.514000000    -5.093000000    -2.250000000
H     5.537000000    -4.725000000    -2.255000000
C     3.628000000    -4.726000000    -1.256000000
C     2.298000000    -5.205000000    -1.338000000
H     1.642000000    -4.908000000    -0.524000000
C     1.659000000    -1.537000000     1.161000000
H     2.632000000    -1.601000000     1.643000000
C     1.264000000    -0.465000000     0.335000000
H     1.942000000     0.382000000     0.262000000
C     0.086000000    -0.384000000    -0.360000000
C    -0.284000000     0.779000000    -1.213000000
H    -1.200000000     0.526000000    -1.751000000
H    -0.485000000     1.659000000    -0.599000000
H     0.469000000     0.972000000    -1.980000000
C    -0.763000000    -1.506000000    -0.232000000
H    -1.734000000    -1.557000000    -0.717000000
C    -0.379000000    -2.627000000     0.482000000
H    -1.093000000    -3.443000000     0.559000000
C     0.821000000    -2.650000000     1.232000000
C     1.160000000    -3.785000000     2.043000000
O     0.359000000    -4.677000000     2.179000000
O     2.147000000    -3.795000000     2.689000000
O    -1.354000000    -5.184000000     5.653000000
H    -1.754000000    -4.870000000     4.842000000
H    -0.423000000    -4.989000000     5.552000000
O    -1.857000000    -4.070000000     3.070000000
H    -0.957000000    -4.284000000     2.823000000
H    -2.384000000    -4.768000000     2.682000000
O     0.804000000    -9.012000000     4.767000000
H     0.582000000    -9.480000000     3.962000000
H     1.036000000    -8.130000000     4.475000000
O     1.680000000    -6.651000000     2.978000000
H     2.598000000    -6.438000000     2.814000000
H     1.194000000    -5.906000000     2.623000000
O     4.506000000    -5.133000000     2.600000000
H     4.664000000    -4.929000000     1.678000000
H     3.752000000    -4.594000000     2.839000000
O     1.229000000    -4.350000000     5.767000000
H     1.463000000    -4.194000000     4.852000000
H     1.970000000    -4.006000000     6.266000000
O    -0.709000000    -7.668000000     1.933000000
H    -1.461000000    -7.078000000     1.984000000
H     0.052000000    -7.093000000     2.020000000
O     6.449000000    -3.243000000     5.069000000
H     6.682000000    -3.925000000     4.439000000
H     5.528000000    -3.056000000     4.890000000
O     3.010000000    -6.682000000     6.913000000
H     3.841000000    -6.333000000     7.232000000
H     3.100000000    -6.681000000     5.960000000
O     0.337000000   -10.100000000     2.252000000
H    -0.137000000   -10.806000000     1.814000000
H    -0.200000000    -9.322000000     2.103000000
O    -3.160000000    -6.600000000     2.699000000
H    -4.060000000    -6.783000000     2.429000000
H    -3.114000000    -6.911000000     3.604000000
O     3.879000000    -2.654000000     4.314000000
H     3.292000000    -2.994000000     3.639000000
H     3.331000000    -2.068000000     4.836000000
O     4.989000000    -7.308000000     4.454000000
H     5.047000000    -6.710000000     3.708000000
H     5.769000000    -7.118000000     4.975000000
O     1.667000000    -0.903000000     4.914000000
H     1.688000000    -0.136000000     4.341000000
H     0.757000000    -1.198000000     4.886000000
O    -0.671000000    -1.937000000     4.342000000
H    -0.966000000    -2.695000000     3.837000000
H    -1.257000000    -1.909000000     5.098000000
O    -2.621000000    -7.691000000     5.666000000
H    -2.095000000    -7.031000000     6.117000000
H    -2.164000000    -8.516000000     5.831000000
O     1.290000000    -9.200000000    -0.927000000
H     0.839000000    -9.144000000    -1.770000000
H     1.159000000    -8.339000000    -0.529000000
O     3.114000000    -3.534000000     7.815000000
H     3.758000000    -4.194000000     7.559000000
H     2.939000000    -3.715000000     8.739000000
O     2.016000000    -0.946000000     7.518000000
H     2.447000000    -1.744000000     7.824000000
H     1.986000000    -1.040000000     6.565000000
