218
-1473.14158
C    -1.221000000     2.337000000     4.783000000
H    -2.244000000     2.502000000     4.454000000
C    -0.182000000     2.838000000     3.983000000
C     1.135000000     2.568000000     4.359000000
H     2.019000000     2.823000000     3.779000000
C    -0.420000000     3.567000000     2.553000000
O    -1.702000000     4.122000000     2.531000000
H    -0.276000000     2.739000000     1.842000000
O     0.606000000     4.498000000     2.168000000
C     1.034000000     4.416000000     0.866000000
C     2.316000000     3.913000000     0.627000000
H     2.899000000     3.509000000     1.450000000
C     2.730000000     3.754000000    -0.657000000
O     3.884000000     3.105000000    -0.887000000
C     1.913000000     4.125000000    -1.758000000
C     2.389000000     3.981000000    -3.210000000
H     1.891000000     4.741000000    -3.816000000
C     2.130000000     2.518000000    -3.710000000
C     0.823000000     2.330000000    -4.281000000
H     0.074000000     3.118000000    -4.296000000
H     3.434000000     4.282000000    -3.308000000
C     0.704000000     4.693000000    -1.496000000
H     0.043000000     4.905000000    -2.332000000
C     0.223000000     4.809000000    -0.183000000
C    -1.139000000     5.423000000     0.069000000
H    -1.306000000     6.093000000    -0.777000000
H    -1.066000000     6.065000000     0.948000000
C    -2.211000000     4.386000000     0.250000000
C    -2.816000000     3.901000000    -0.896000000
H    -2.679000000     4.381000000    -1.862000000
C    -2.466000000     3.750000000     1.508000000
C    -3.350000000     2.765000000     1.610000000
H    -3.527000000     2.187000000     2.513000000
C    -3.931000000     2.313000000     0.393000000
O    -4.663000000     1.167000000     0.444000000
C    -4.009000000    -0.103000000    -0.007000000
C    -4.382000000    -1.286000000     0.878000000
C    -4.573000000    -2.540000000     0.347000000
H    -4.413000000    -2.563000000    -0.728000000
C    -4.328000000    -1.162000000     2.299000000
H    -4.126000000    -0.185000000     2.731000000
O    -4.447000000    -0.435000000    -1.309000000
H    -2.912000000    -0.020000000     0.022000000
C    -3.697000000     2.824000000    -0.869000000
C    -4.302000000     2.305000000    -2.232000000
H    -4.459000000     3.122000000    -2.939000000
H    -5.290000000     1.913000000    -1.983000000
C    -3.591000000     1.215000000    -2.899000000
C    -2.770000000     1.454000000    -3.919000000
H    -2.580000000     2.498000000    -4.158000000
C    -3.705000000    -0.111000000    -2.429000000
C    -3.070000000    -1.127000000    -3.081000000
H    -3.075000000    -2.161000000    -2.747000000
C    -2.186000000    -0.817000000    -4.124000000
O    -1.361000000    -1.809000000    -4.516000000
C     0.040000000    -1.835000000    -4.025000000
C     0.401000000    -3.281000000    -3.590000000
C    -0.583000000    -4.107000000    -3.016000000
H    -1.568000000    -3.654000000    -3.104000000
C     1.702000000    -3.795000000    -3.578000000
H     2.500000000    -3.171000000    -3.974000000
O     0.908000000    -1.209000000    -5.018000000
H    -0.140000000    -1.198000000    -3.146000000
C    -2.013000000     0.497000000    -4.541000000
C    -0.854000000     0.920000000    -5.407000000
H    -1.168000000     1.862000000    -5.862000000
H    -0.835000000     0.236000000    -6.258000000
C     0.511000000     1.081000000    -4.878000000
C     1.369000000     0.055000000    -4.683000000
C     2.544000000     0.172000000    -3.967000000
H     3.111000000    -0.748000000    -3.856000000
C     3.000000000     1.449000000    -3.555000000
O     4.133000000     1.562000000    -2.766000000
C     3.883000000     1.705000000    -1.324000000
H     2.825000000     1.462000000    -1.145000000
C     4.754000000     0.781000000    -0.479000000
C     5.229000000     1.329000000     0.687000000
H     4.873000000     2.271000000     1.096000000
C     5.026000000    -0.560000000    -0.807000000
H     4.606000000    -0.869000000    -1.761000000
C     5.695000000    -1.382000000     0.038000000
O     5.870000000    -2.714000000    -0.251000000
C     6.225000000    -0.854000000     1.215000000
H     6.852000000    -1.374000000     1.935000000
C     5.895000000     0.451000000     1.547000000
O     6.435000000     0.877000000     2.799000000
C     5.713000000     1.635000000     3.769000000
C     4.551000000     1.134000000     4.253000000
H     4.151000000     0.146000000     4.041000000
C     6.274000000     2.853000000     4.128000000
H     7.238000000     3.212000000     3.775000000
C     5.609000000     3.581000000     5.153000000
H     5.981000000     4.476000000     5.644000000
C     4.478000000     3.098000000     5.743000000
H     3.943000000     3.661000000     6.504000000
C     3.910000000     1.909000000     5.245000000
O     2.744000000     1.503000000     5.834000000
C     1.410000000     1.845000000     5.500000000
C     0.363000000     1.385000000     6.365000000
H     0.546000000     0.738000000     7.219000000
C    -0.958000000     1.657000000     5.965000000
O    -2.033000000     1.117000000     6.701000000
C    -3.226000000     0.715000000     6.147000000
C    -3.460000000    -0.554000000     5.662000000
H    -2.644000000    -1.271000000     5.632000000
C    -4.319000000     1.546000000     6.336000000
H    -4.316000000     2.525000000     6.809000000
C    -5.605000000     1.116000000     5.942000000
H    -6.397000000     1.846000000     6.090000000
C    -5.868000000    -0.133000000     5.326000000
H    -6.811000000    -0.312000000     4.815000000
C    -4.687000000    -0.983000000     5.187000000
O    -4.735000000    -2.141000000     4.478000000
C    -4.618000000    -2.214000000     3.115000000
C    -4.957000000    -3.407000000     2.514000000
H    -5.231000000    -4.296000000     3.078000000
C    -4.880000000    -3.594000000     1.144000000
O    -5.084000000    -4.877000000     0.700000000
C    -4.536000000    -5.453000000    -0.450000000
C    -3.156000000    -5.447000000    -0.728000000
H    -2.580000000    -4.987000000     0.071000000
C    -5.386000000    -6.006000000    -1.364000000
H    -6.437000000    -6.007000000    -1.086000000
C    -4.928000000    -6.489000000    -2.557000000
H    -5.575000000    -6.851000000    -3.352000000
C    -3.564000000    -6.496000000    -2.819000000
H    -3.249000000    -7.019000000    -3.718000000
C    -2.632000000    -6.024000000    -1.878000000
O    -1.267000000    -6.240000000    -2.130000000
C    -0.299000000    -5.377000000    -2.563000000
C     1.016000000    -5.949000000    -2.625000000
H     1.193000000    -6.975000000    -2.314000000
C     2.016000000    -5.106000000    -3.130000000
O     3.348000000    -5.547000000    -3.246000000
C     4.350000000    -4.657000000    -2.977000000
C     5.206000000    -4.362000000    -4.012000000
H     5.055000000    -4.754000000    -5.014000000
C     6.306000000    -3.552000000    -3.790000000
H     7.000000000    -3.402000000    -4.614000000
C     6.541000000    -2.973000000    -2.543000000
H     7.371000000    -2.368000000    -2.188000000
C     5.594000000    -3.204000000    -1.510000000
C     4.535000000    -4.042000000    -1.732000000
H     3.933000000    -4.252000000    -0.852000000
C     1.801000000    -0.929000000     1.805000000
H     2.432000000    -0.649000000     2.645000000
C     1.134000000     0.112000000     1.162000000
H     1.334000000     1.098000000     1.573000000
C     0.233000000    -0.156000000     0.167000000
C    -0.510000000     0.949000000    -0.431000000
H    -1.266000000     0.644000000    -1.158000000
H    -1.008000000     1.420000000     0.418000000
H     0.219000000     1.622000000    -0.887000000
C     0.072000000    -1.444000000    -0.293000000
H    -0.731000000    -1.630000000    -1.001000000
C     0.787000000    -2.475000000     0.294000000
H     0.496000000    -3.487000000     0.022000000
C     1.615000000    -2.294000000     1.430000000
C     2.118000000    -3.395000000     2.299000000
O     1.805000000    -4.566000000     2.091000000
O     2.800000000    -3.219000000     3.358000000
O     6.185000000    -7.563000000     1.665000000
H     5.810000000    -8.021000000     0.912000000
H     5.661000000    -6.766000000     1.745000000
O     1.104000000    -7.031000000     1.497000000
H     1.446000000    -6.137000000     1.490000000
H     1.315000000    -7.375000000     0.629000000
O     4.800000000    -1.882000000     7.269000000
H     5.171000000    -1.010000000     7.133000000
H     3.992000000    -1.724000000     7.757000000
O     4.221000000    -8.720000000     3.635000000
H     4.865000000    -8.880000000     4.324000000
H     4.730000000    -8.358000000     2.910000000
O     3.724000000    -6.277000000     7.650000000
H     3.283000000    -5.837000000     6.922000000
H     3.126000000    -6.981000000     7.900000000
O     0.670000000    -4.319000000     6.882000000
H     1.250000000    -4.965000000     6.477000000
H     0.934000000    -3.485000000     6.494000000
O     4.974000000    -5.059000000     2.157000000
H     4.245000000    -4.850000000     2.742000000
H     5.414000000    -4.221000000     2.014000000
O     1.321000000    -2.072000000     5.732000000
H     1.905000000    -2.427000000     5.062000000
H     0.588000000    -1.702000000     5.240000000
O     7.699000000    -4.041000000     3.653000000
H     8.198000000    -3.518000000     4.281000000
H     6.801000000    -4.019000000     3.983000000
O    -0.660000000    -4.509000000     3.365000000
H     0.185000000    -4.681000000     2.950000000
H    -1.276000000    -5.070000000     2.895000000
O     2.216000000    -1.053000000     8.055000000
H     1.387000000    -0.981000000     8.528000000
H     1.963000000    -1.297000000     7.165000000
O     1.736000000    -7.674000000     4.063000000
H     2.449000000    -8.272000000     3.836000000
H     1.337000000    -7.448000000     3.223000000
O    -2.535000000    -6.846000000     3.273000000
H    -2.734000000    -7.456000000     3.983000000
H    -2.073000000    -7.376000000     2.624000000
O     5.560000000    -6.615000000     5.464000000
H     5.067000000    -6.504000000     6.277000000
H     5.358000000    -5.832000000     4.952000000
O     5.225000000    -3.431000000     4.835000000
H     4.504000000    -3.368000000     4.208000000
H     5.031000000    -2.760000000     5.490000000
O    -1.310000000    -8.717000000     1.586000000
H    -1.028000000    -9.562000000     1.236000000
H    -0.515000000    -8.183000000     1.593000000
O     2.352000000    -5.474000000     5.322000000
H     2.589000000    -4.974000000     4.541000000
H     2.127000000    -6.343000000     4.991000000
O    -2.007000000    -4.458000000     6.064000000
H    -1.994000000    -4.692000000     5.136000000
H    -1.099000000    -4.556000000     6.349000000
O    -0.410000000    -1.726000000     3.744000000
H    -0.530000000    -2.662000000     3.581000000
H    -0.673000000    -1.305000000     2.925000000
