218
-1454.32994
C    -2.101000000     1.295000000     4.887000000
H    -3.110000000     1.560000000     4.581000000
C    -0.982000000     1.907000000     4.268000000
C     0.290000000     1.572000000     4.760000000
H     1.207000000     1.996000000     4.358000000
C    -1.069000000     2.898000000     3.153000000
O    -2.419000000     3.442000000     3.017000000
H    -0.925000000     2.230000000     2.290000000
O    -0.035000000     3.910000000     3.168000000
C     0.573000000     4.211000000     2.041000000
C     1.869000000     3.654000000     1.872000000
H     2.298000000     3.018000000     2.642000000
C     2.506000000     3.765000000     0.673000000
O     3.716000000     3.193000000     0.506000000
C     2.025000000     4.548000000    -0.350000000
C     2.842000000     4.733000000    -1.643000000
H     2.413000000     5.538000000    -2.244000000
C     2.565000000     3.517000000    -2.522000000
C     1.471000000     3.479000000    -3.380000000
H     0.801000000     4.334000000    -3.420000000
H     3.917000000     4.887000000    -1.530000000
C     0.796000000     5.144000000    -0.146000000
H     0.525000000     5.781000000    -0.985000000
C     0.056000000     5.006000000     1.053000000
C    -1.368000000     5.547000000     1.192000000
H    -1.512000000     6.318000000     0.432000000
H    -1.419000000     5.934000000     2.212000000
C    -2.404000000     4.520000000     0.803000000
C    -2.694000000     4.227000000    -0.500000000
H    -2.076000000     4.744000000    -1.229000000
C    -2.887000000     3.584000000     1.774000000
C    -3.686000000     2.500000000     1.425000000
H    -3.961000000     1.894000000     2.285000000
C    -4.052000000     2.287000000     0.112000000
O    -4.676000000     1.114000000    -0.191000000
C    -3.862000000     0.081000000    -0.769000000
C    -4.078000000    -1.271000000    -0.097000000
C    -4.010000000    -2.407000000    -0.903000000
H    -3.661000000    -2.295000000    -1.926000000
C    -4.537000000    -1.442000000     1.201000000
H    -4.633000000    -0.570000000     1.843000000
O    -4.139000000     0.064000000    -2.194000000
H    -2.797000000     0.283000000    -0.584000000
C    -3.570000000     3.138000000    -0.861000000
C    -4.003000000     2.973000000    -2.302000000
H    -3.955000000     3.888000000    -2.895000000
H    -5.006000000     2.553000000    -2.405000000
C    -3.122000000     2.035000000    -3.091000000
C    -2.057000000     2.574000000    -3.845000000
H    -1.827000000     3.635000000    -3.781000000
C    -3.229000000     0.661000000    -3.021000000
C    -2.406000000    -0.164000000    -3.774000000
H    -2.563000000    -1.227000000    -3.610000000
C    -1.430000000     0.302000000    -4.600000000
O    -0.558000000    -0.610000000    -5.068000000
C     0.617000000    -0.798000000    -4.175000000
C     0.918000000    -2.309000000    -3.971000000
C    -0.001000000    -3.251000000    -4.395000000
H    -0.928000000    -2.937000000    -4.868000000
C     2.041000000    -2.748000000    -3.274000000
H     2.651000000    -2.017000000    -2.749000000
O     1.726000000     0.016000000    -4.620000000
H     0.536000000    -0.325000000    -3.185000000
C    -1.214000000     1.700000000    -4.554000000
C     0.046000000     2.346000000    -5.144000000
H    -0.122000000     3.416000000    -5.287000000
H     0.439000000     1.841000000    -6.029000000
C     1.162000000     2.337000000    -4.148000000
C     1.967000000     1.196000000    -3.954000000
C     3.181000000     1.279000000    -3.261000000
H     3.845000000     0.427000000    -3.140000000
C     3.501000000     2.456000000    -2.593000000
O     4.437000000     2.374000000    -1.572000000
C     3.884000000     1.976000000    -0.275000000
H     2.855000000     1.628000000    -0.448000000
C     4.780000000     0.883000000     0.304000000
C     4.756000000     0.625000000     1.724000000
H     4.245000000     1.356000000     2.344000000
C     5.444000000    -0.016000000    -0.534000000
H     5.342000000     0.041000000    -1.615000000
C     6.163000000    -1.050000000     0.008000000
O     6.884000000    -1.967000000    -0.767000000
C     6.127000000    -1.331000000     1.356000000
H     6.613000000    -2.180000000     1.830000000
C     5.459000000    -0.444000000     2.262000000
O     5.422000000    -0.696000000     3.613000000
C     4.746000000     0.099000000     4.526000000
C     3.477000000    -0.152000000     4.972000000
H     2.869000000    -0.962000000     4.579000000
C     5.322000000     1.310000000     4.972000000
H     6.303000000     1.549000000     4.571000000
C     4.693000000     2.164000000     5.812000000
H     5.148000000     3.134000000     5.997000000
C     3.411000000     1.934000000     6.191000000
H     2.948000000     2.654000000     6.860000000
C     2.856000000     0.688000000     5.860000000
O     1.553000000     0.293000000     6.367000000
C     0.395000000     0.568000000     5.743000000
C    -0.744000000    -0.105000000     6.183000000
H    -0.707000000    -0.755000000     7.053000000
C    -1.974000000     0.249000000     5.775000000
O    -2.995000000    -0.345000000     6.484000000
C    -4.175000000    -0.735000000     5.936000000
C    -4.168000000    -1.385000000     4.709000000
H    -3.196000000    -1.398000000     4.224000000
C    -5.401000000    -0.577000000     6.624000000
H    -5.416000000    -0.053000000     7.576000000
C    -6.498000000    -1.245000000     6.174000000
H    -7.424000000    -1.201000000     6.741000000
C    -6.466000000    -1.957000000     5.007000000
H    -7.373000000    -2.512000000     4.783000000
C    -5.382000000    -1.924000000     4.153000000
O    -5.356000000    -2.791000000     3.058000000
C    -4.776000000    -2.656000000     1.781000000
C    -4.640000000    -3.812000000     1.002000000
H    -4.738000000    -4.803000000     1.437000000
C    -4.231000000    -3.694000000    -0.286000000
O    -4.242000000    -4.809000000    -1.068000000
C    -3.866000000    -4.903000000    -2.382000000
C    -2.506000000    -5.066000000    -2.759000000
H    -1.743000000    -5.009000000    -1.987000000
C    -4.787000000    -5.150000000    -3.444000000
H    -5.846000000    -5.183000000    -3.203000000
C    -4.364000000    -5.295000000    -4.775000000
H    -5.098000000    -5.307000000    -5.576000000
C    -3.015000000    -5.393000000    -5.095000000
H    -2.684000000    -5.457000000    -6.128000000
C    -2.146000000    -5.274000000    -4.120000000
O    -0.844000000    -5.507000000    -4.452000000
C     0.194000000    -4.603000000    -4.158000000
C     1.283000000    -5.025000000    -3.423000000
H     1.237000000    -6.041000000    -3.039000000
C     2.184000000    -4.124000000    -2.905000000
O     3.155000000    -4.609000000    -2.042000000
C     4.476000000    -4.244000000    -2.214000000
C     5.241000000    -4.750000000    -3.227000000
H     4.719000000    -5.403000000    -3.921000000
C     6.618000000    -4.421000000    -3.396000000
H     7.197000000    -4.886000000    -4.190000000
C     7.180000000    -3.497000000    -2.510000000
H     8.213000000    -3.177000000    -2.619000000
C     6.311000000    -2.892000000    -1.564000000
C     4.986000000    -3.246000000    -1.424000000
H     4.309000000    -2.650000000    -0.818000000
C     1.944000000    -1.954000000     1.381000000
H     2.668000000    -2.062000000     2.185000000
C     1.419000000    -0.659000000     1.128000000
H     1.696000000     0.207000000     1.724000000
C     0.426000000    -0.501000000     0.155000000
C    -0.105000000     0.869000000    -0.155000000
H    -1.061000000     1.113000000     0.313000000
H     0.631000000     1.577000000     0.230000000
H    -0.100000000     1.098000000    -1.223000000
C    -0.075000000    -1.571000000    -0.541000000
H    -0.748000000    -1.414000000    -1.380000000
C     0.425000000    -2.838000000    -0.297000000
H     0.003000000    -3.620000000    -0.923000000
C     1.431000000    -3.065000000     0.642000000
C     1.930000000    -4.449000000     0.944000000
O     1.271000000    -5.391000000     0.519000000
O     2.939000000    -4.657000000     1.539000000
O    -0.882000000    -6.717000000     0.298000000
H    -0.224000000    -6.026000000     0.378000000
H    -0.754000000    -7.070000000    -0.583000000
O     5.501000000    -3.823000000     6.096000000
H     6.431000000    -4.035000000     6.169000000
H     5.400000000    -3.488000000     5.205000000
O     8.299000000    -4.836000000     3.451000000
H     7.367000000    -4.618000000     3.435000000
H     8.338000000    -5.741000000     3.142000000
O    -2.756000000    -8.568000000     2.058000000
H    -3.158000000    -8.317000000     2.890000000
H    -2.168000000    -7.843000000     1.847000000
O     2.543000000    -9.867000000     1.122000000
H     1.894000000    -9.444000000     0.562000000
H     2.046000000   -10.160000000     1.886000000
O     1.714000000    -7.822000000    -0.972000000
H     1.693000000    -6.907000000    -0.692000000
H     0.802000000    -8.033000000    -1.172000000
O    -1.167000000    -8.120000000    -2.133000000
H    -1.841000000    -8.676000000    -1.743000000
H    -1.433000000    -8.029000000    -3.049000000
O     4.133000000    -7.678000000     6.029000000
H     3.762000000    -8.188000000     5.309000000
H     5.058000000    -7.583000000     5.804000000
O    -0.523000000    -4.157000000     4.809000000
H    -0.737000000    -4.134000000     3.876000000
H     0.429000000    -4.251000000     4.835000000
O    -0.289000000    -8.136000000     4.786000000
H    -0.375000000    -7.461000000     5.459000000
H     0.301000000    -7.752000000     4.137000000
O     3.921000000    -8.589000000    -2.693000000
H     4.598000000    -8.125000000    -2.201000000
H     3.145000000    -8.542000000    -2.136000000
O     2.253000000    -4.304000000     4.455000000
H     2.757000000    -4.194000000     3.648000000
H     2.911000000    -4.300000000     5.150000000
O    -1.559000000    -6.214000000     6.539000000
H    -1.540000000    -5.710000000     5.725000000
H    -1.713000000    -5.561000000     7.222000000
O     5.358000000    -4.864000000     2.834000000
H     4.463000000    -4.653000000     2.569000000
H     5.686000000    -5.434000000     2.138000000
O     0.992000000    -6.383000000     3.036000000
H     0.963000000    -6.096000000     2.124000000
H     1.720000000    -5.892000000     3.418000000
O     3.885000000    -7.054000000     1.224000000
H     3.266000000    -7.701000000     0.887000000
H     3.465000000    -6.211000000     1.057000000
O     6.667000000    -6.535000000     0.627000000
H     6.697000000    -6.716000000    -0.312000000
H     5.758000000    -6.706000000     0.875000000
O    -1.536000000    -4.490000000     2.241000000
H    -1.005000000    -5.096000000     1.725000000
H    -2.438000000    -4.681000000     1.983000000
O     3.336000000    -9.051000000     3.783000000
H     3.368000000    -8.417000000     3.067000000
H     3.891000000    -9.774000000     3.487000000
