218
-1473.47932
C    -2.309000000    -1.230000000    -4.408000000
H    -1.916000000    -0.221000000    -4.498000000
C    -3.102000000    -1.608000000    -3.388000000
C    -3.402000000    -2.940000000    -3.247000000
H    -3.975000000    -3.310000000    -2.400000000
C    -3.517000000    -0.553000000    -2.342000000
O    -3.907000000     0.680000000    -3.049000000
H    -2.636000000    -0.348000000    -1.715000000
O    -4.652000000    -1.121000000    -1.587000000
C    -4.558000000    -0.875000000    -0.246000000
C    -4.171000000    -1.922000000     0.557000000
H    -3.846000000    -2.898000000     0.207000000
C    -3.975000000    -1.694000000     1.951000000
O    -3.338000000    -2.713000000     2.657000000
C    -4.259000000    -0.434000000     2.521000000
C    -3.963000000    -0.136000000     3.940000000
H    -4.674000000     0.638000000     4.236000000
C    -2.486000000     0.297000000     4.183000000
C    -2.131000000     1.682000000     4.121000000
H    -2.941000000     2.352000000     3.842000000
H    -4.191000000    -1.027000000     4.529000000
C    -4.697000000     0.634000000     1.664000000
H    -4.993000000     1.622000000     2.009000000
C    -4.903000000     0.396000000     0.262000000
C    -5.286000000     1.520000000    -0.623000000
H    -5.877000000     2.230000000    -0.041000000
H    -5.964000000     1.174000000    -1.406000000
C    -4.123000000     2.326000000    -1.244000000
C    -3.519000000     3.408000000    -0.560000000
H    -3.805000000     3.879000000     0.377000000
C    -3.533000000     1.859000000    -2.447000000
C    -2.424000000     2.552000000    -3.018000000
H    -1.933000000     2.151000000    -3.901000000
C    -1.904000000     3.593000000    -2.314000000
O    -0.739000000     4.177000000    -2.662000000
C     0.401000000     3.741000000    -1.938000000
C     1.504000000     3.226000000    -2.861000000
C     2.757000000     2.907000000    -2.354000000
H     2.837000000     2.907000000    -1.270000000
C     1.253000000     3.062000000    -4.245000000
H     0.292000000     3.331000000    -4.675000000
O     0.868000000     4.853000000    -1.149000000
H     0.099000000     2.935000000    -1.253000000
C    -2.447000000     4.075000000    -1.144000000
C    -1.873000000     5.278000000    -0.404000000
H    -2.631000000     5.819000000     0.166000000
H    -1.450000000     6.072000000    -1.023000000
C    -0.800000000     4.908000000     0.587000000
C    -1.109000000     4.472000000     1.904000000
H    -2.137000000     4.546000000     2.248000000
C     0.486000000     4.657000000     0.156000000
C     1.508000000     4.246000000     0.976000000
H     2.493000000     4.171000000     0.523000000
C     1.201000000     3.887000000     2.238000000
O     2.141000000     3.297000000     3.085000000
C     2.123000000     1.837000000     3.084000000
C     3.507000000     1.334000000     3.059000000
C     4.543000000     2.021000000     2.505000000
H     4.399000000     3.012000000     2.083000000
C     3.796000000     0.116000000     3.698000000
H     2.986000000    -0.469000000     4.125000000
O     1.500000000     1.582000000     4.337000000
H     1.602000000     1.484000000     2.181000000
C    -0.096000000     3.993000000     2.712000000
C    -0.630000000     3.606000000     4.096000000
H    -1.500000000     4.216000000     4.349000000
H     0.152000000     3.853000000     4.817000000
C    -0.845000000     2.139000000     4.281000000
C     0.148000000     1.193000000     4.410000000
C    -0.109000000    -0.163000000     4.419000000
H     0.749000000    -0.821000000     4.531000000
C    -1.457000000    -0.614000000     4.448000000
O    -1.703000000    -1.956000000     4.316000000
C    -1.901000000    -2.417000000     2.973000000
H    -1.560000000    -1.700000000     2.211000000
C    -1.028000000    -3.700000000     2.764000000
C    -1.246000000    -4.481000000     1.655000000
H    -2.130000000    -4.362000000     1.035000000
C     0.111000000    -3.985000000     3.581000000
H     0.386000000    -3.347000000     4.417000000
C     0.993000000    -4.977000000     3.204000000
O     2.091000000    -5.306000000     3.974000000
C     0.717000000    -5.728000000     2.079000000
H     1.406000000    -6.508000000     1.765000000
C    -0.380000000    -5.442000000     1.241000000
O    -0.571000000    -6.107000000     0.057000000
C    -1.777000000    -6.255000000    -0.601000000
C    -1.887000000    -5.666000000    -1.852000000
H    -0.994000000    -5.098000000    -2.098000000
C    -2.883000000    -6.848000000     0.013000000
H    -2.867000000    -7.207000000     1.039000000
C    -3.989000000    -7.140000000    -0.768000000
H    -4.801000000    -7.790000000    -0.450000000
C    -4.007000000    -6.698000000    -2.161000000
H    -4.848000000    -6.915000000    -2.814000000
C    -3.003000000    -5.907000000    -2.665000000
O    -3.127000000    -5.317000000    -3.897000000
C    -2.812000000    -3.949000000    -4.073000000
C    -1.979000000    -3.573000000    -5.185000000
H    -1.610000000    -4.368000000    -5.828000000
C    -1.810000000    -2.205000000    -5.309000000
O    -0.996000000    -1.870000000    -6.376000000
C    -0.734000000    -0.547000000    -6.796000000
C     0.376000000     0.111000000    -6.272000000
H     0.987000000    -0.439000000    -5.561000000
C    -1.478000000     0.058000000    -7.777000000
H    -2.377000000    -0.403000000    -8.178000000
C    -1.149000000     1.358000000    -8.219000000
H    -1.745000000     1.832000000    -8.995000000
C    -0.055000000     2.011000000    -7.681000000
H     0.179000000     2.981000000    -8.112000000
C     0.706000000     1.442000000    -6.695000000
O     1.891000000     2.024000000    -6.313000000
C     2.170000000     2.370000000    -5.025000000
C     3.439000000     2.087000000    -4.538000000
H     4.193000000     1.540000000    -5.098000000
C     3.675000000     2.266000000    -3.230000000
O     4.874000000     1.735000000    -2.730000000
C     5.519000000     2.505000000    -1.765000000
C     5.744000000     1.853000000    -0.569000000
H     5.434000000     0.821000000    -0.430000000
C     5.899000000     3.804000000    -2.006000000
H     5.582000000     4.387000000    -2.867000000
C     6.683000000     4.455000000    -1.127000000
H     6.926000000     5.488000000    -1.362000000
C     6.927000000     3.859000000     0.084000000
H     7.451000000     4.382000000     0.879000000
C     6.444000000     2.556000000     0.425000000
O     6.740000000     2.086000000     1.741000000
C     5.822000000     1.434000000     2.416000000
C     6.094000000     0.190000000     2.876000000
H     7.039000000    -0.313000000     2.691000000
C     5.078000000    -0.494000000     3.518000000
O     5.290000000    -1.763000000     3.918000000
C     4.457000000    -2.565000000     4.648000000
C     4.307000000    -2.414000000     5.978000000
H     4.807000000    -1.576000000     6.457000000
C     3.497000000    -3.243000000     6.698000000
H     3.369000000    -2.942000000     7.734000000
C     2.787000000    -4.241000000     6.035000000
H     2.171000000    -4.921000000     6.618000000
C     2.925000000    -4.447000000     4.676000000
C     3.730000000    -3.578000000     4.036000000
H     3.976000000    -3.789000000     2.998000000
C     1.305000000    -1.367000000    -1.871000000
H     1.356000000    -1.518000000    -2.946000000
C     0.435000000    -0.439000000    -1.313000000
H    -0.164000000     0.187000000    -1.970000000
C     0.307000000    -0.279000000     0.053000000
C    -0.750000000     0.668000000     0.578000000
H    -1.303000000     0.246000000     1.420000000
H    -0.252000000     1.593000000     0.873000000
H    -1.586000000     0.918000000    -0.078000000
C     1.150000000    -0.996000000     0.831000000
H     1.149000000    -0.916000000     1.915000000
C     2.085000000    -1.926000000     0.306000000
H     2.754000000    -2.502000000     0.940000000
C     2.138000000    -2.144000000    -1.096000000
C     3.016000000    -3.180000000    -1.749000000
O     3.496000000    -3.989000000    -0.927000000
O     3.181000000    -3.222000000    -2.956000000
O     4.045000000    -1.062000000    -4.044000000
H     3.323000000    -0.470000000    -3.834000000
H     3.750000000    -1.918000000    -3.734000000
O     5.792000000    -3.361000000     0.229000000
H     6.331000000    -3.475000000    -0.554000000
H     4.925000000    -3.674000000    -0.030000000
O     6.940000000    -0.320000000    -2.997000000
H     6.217000000    -0.387000000    -3.620000000
H     6.645000000    -0.819000000    -2.234000000
O     6.598000000    -7.232000000    -0.185000000
H     6.410000000    -6.722000000    -0.974000000
H     7.480000000    -6.962000000     0.070000000
O     5.651000000    -1.844000000    -6.310000000
H     5.164000000    -2.031000000    -7.113000000
H     4.976000000    -1.713000000    -5.645000000
O     7.518000000    -3.354000000    -5.007000000
H     8.304000000    -3.181000000    -5.524000000
H     6.867000000    -2.741000000    -5.348000000
O     1.257000000    -2.549000000    -8.377000000
H     0.479000000    -2.999000000    -8.705000000
H     1.293000000    -2.777000000    -7.448000000
O     2.342000000    -8.036000000    -5.424000000
H     2.196000000    -8.902000000    -5.803000000
H     2.517000000    -8.205000000    -4.499000000
O     3.727000000    -5.861000000     1.046000000
H     3.387000000    -6.579000000     0.513000000
H     3.700000000    -5.099000000     0.468000000
O     7.168000000    -5.019000000     1.914000000
H     6.709000000    -4.363000000     1.390000000
H     6.525000000    -5.716000000     2.041000000
O     4.107000000    -8.738000000    -2.943000000
H     4.430000000    -7.849000000    -3.085000000
H     4.153000000    -8.861000000    -1.994000000
O     2.576000000    -8.402000000    -0.176000000
H     2.701000000    -9.304000000    -0.470000000
H     2.505000000    -7.894000000    -0.984000000
O     6.275000000    -6.086000000    -5.736000000
H     5.665000000    -5.430000000    -5.398000000
H     6.755000000    -5.632000000    -6.429000000
O     4.194000000    -4.538000000    -5.041000000
H     3.571000000    -3.990000000    -5.517000000
H     4.351000000    -4.067000000    -4.222000000
O     1.437000000    -3.588000000    -5.462000000
H     1.039000000    -3.516000000    -4.594000000
H     1.193000000    -4.462000000    -5.766000000
O     5.806000000    -6.461000000    -2.809000000
H     5.925000000    -5.533000000    -2.605000000
H     5.791000000    -6.496000000    -3.766000000
O     2.653000000    -6.077000000    -2.826000000
H     3.226000000    -6.004000000    -3.590000000
H     2.916000000    -5.353000000    -2.259000000
O     6.225000000    -3.694000000    -2.639000000
H     6.521000000    -3.389000000    -3.497000000
H     5.305000000    -3.432000000    -2.595000000
O     8.931000000    -3.918000000    -1.807000000
H     9.458000000    -3.300000000    -2.313000000
H     8.058000000    -3.862000000    -2.196000000
