218
-1432.50210
C    -2.331000000     0.033000000    -5.292000000
H    -2.185000000     1.108000000    -5.355000000
C    -2.931000000    -0.556000000    -4.187000000
C    -2.995000000    -1.941000000    -4.065000000
H    -3.426000000    -2.441000000    -3.201000000
C    -3.299000000     0.240000000    -2.927000000
O    -3.633000000     1.615000000    -3.215000000
H    -2.482000000     0.046000000    -2.217000000
O    -4.426000000    -0.388000000    -2.267000000
C    -4.535000000    -0.326000000    -0.932000000
C    -4.092000000    -1.459000000    -0.245000000
H    -3.795000000    -2.329000000    -0.825000000
C    -3.980000000    -1.419000000     1.132000000
O    -3.516000000    -2.548000000     1.640000000
C    -4.436000000    -0.357000000     1.889000000
C    -4.339000000    -0.310000000     3.386000000
H    -4.938000000     0.481000000     3.843000000
C    -2.936000000    -0.084000000     3.871000000
C    -2.406000000     1.209000000     4.077000000
H    -3.077000000     2.046000000     3.900000000
H    -4.779000000    -1.278000000     3.635000000
C    -4.783000000     0.776000000     1.172000000
H    -5.119000000     1.668000000     1.695000000
C    -4.863000000     0.816000000    -0.220000000
C    -5.142000000     2.175000000    -0.865000000
H    -5.650000000     2.754000000    -0.091000000
H    -5.935000000     2.134000000    -1.614000000
C    -3.811000000     2.891000000    -1.173000000
C    -3.283000000     3.905000000    -0.343000000
H    -3.821000000     4.139000000     0.572000000
C    -3.175000000     2.586000000    -2.380000000
C    -2.061000000     3.280000000    -2.719000000
H    -1.613000000     2.885000000    -3.627000000
C    -1.419000000     4.228000000    -1.846000000
O    -0.156000000     4.705000000    -2.183000000
C     0.857000000     3.940000000    -1.437000000
C     2.024000000     3.593000000    -2.353000000
C     3.343000000     3.658000000    -1.845000000
H     3.544000000     4.175000000    -0.911000000
C     1.827000000     3.199000000    -3.640000000
H     0.825000000     3.295000000    -4.052000000
O     1.277000000     4.643000000    -0.289000000
H     0.323000000     3.037000000    -1.108000000
C    -2.085000000     4.458000000    -0.645000000
C    -1.476000000     5.357000000     0.415000000
H    -2.251000000     5.742000000     1.081000000
H    -1.080000000     6.181000000    -0.183000000
C    -0.499000000     4.614000000     1.292000000
C    -0.908000000     4.154000000     2.556000000
H    -1.964000000     4.209000000     2.806000000
C     0.824000000     4.337000000     0.969000000
C     1.672000000     3.611000000     1.861000000
H     2.676000000     3.332000000     1.551000000
C     1.230000000     3.247000000     3.114000000
O     2.047000000     2.470000000     3.891000000
C     1.865000000     1.034000000     3.800000000
C     3.142000000     0.239000000     3.744000000
C     4.278000000     0.799000000     3.182000000
H     4.304000000     1.874000000     3.026000000
C     3.143000000    -1.117000000     3.895000000
H     2.239000000    -1.629000000     4.212000000
O     1.096000000     0.491000000     4.949000000
H     1.238000000     0.828000000     2.920000000
C    -0.077000000     3.608000000     3.537000000
C    -0.676000000     2.914000000     4.725000000
H    -1.561000000     3.478000000     5.025000000
H    -0.059000000     3.115000000     5.603000000
C    -1.120000000     1.447000000     4.645000000
C    -0.305000000     0.362000000     4.788000000
C    -0.779000000    -0.901000000     4.608000000
H    -0.170000000    -1.781000000     4.799000000
C    -2.061000000    -1.120000000     4.127000000
O    -2.333000000    -2.356000000     3.676000000
C    -2.223000000    -2.601000000     2.255000000
H    -1.566000000    -1.842000000     1.807000000
C    -1.467000000    -3.879000000     2.019000000
C    -1.388000000    -4.391000000     0.685000000
H    -1.841000000    -3.857000000    -0.147000000
C    -0.925000000    -4.642000000     3.062000000
H    -1.003000000    -4.360000000     4.109000000
C    -0.182000000    -5.772000000     2.744000000
O     0.411000000    -6.399000000     3.768000000
C    -0.126000000    -6.216000000     1.444000000
H     0.499000000    -7.069000000     1.190000000
C    -0.695000000    -5.525000000     0.395000000
O    -0.623000000    -6.002000000    -0.894000000
C    -1.666000000    -5.870000000    -1.782000000
C    -1.611000000    -4.974000000    -2.910000000
H    -0.641000000    -4.559000000    -3.171000000
C    -2.870000000    -6.595000000    -1.561000000
H    -3.049000000    -7.205000000    -0.679000000
C    -3.966000000    -6.365000000    -2.502000000
H    -4.930000000    -6.854000000    -2.390000000
C    -3.846000000    -5.508000000    -3.576000000
H    -4.713000000    -5.363000000    -4.216000000
C    -2.686000000    -4.796000000    -3.761000000
O    -2.443000000    -4.168000000    -4.925000000
C    -2.495000000    -2.781000000    -5.060000000
C    -1.799000000    -2.237000000    -6.109000000
H    -1.238000000    -2.828000000    -6.829000000
C    -1.777000000    -0.821000000    -6.299000000
O    -0.977000000    -0.272000000    -7.284000000
C    -0.260000000     0.896000000    -7.079000000
C     0.960000000     1.045000000    -6.362000000
H     1.335000000     0.146000000    -5.879000000
C    -0.710000000     2.034000000    -7.671000000
H    -1.692000000     1.943000000    -8.128000000
C    -0.154000000     3.322000000    -7.545000000
H    -0.617000000     4.195000000    -7.998000000
C     1.068000000     3.438000000    -6.867000000
H     1.514000000     4.372000000    -6.534000000
C     1.672000000     2.255000000    -6.385000000
O     2.870000000     2.331000000    -5.693000000
C     2.920000000     2.668000000    -4.382000000
C     4.172000000     2.616000000    -3.769000000
H     5.004000000     2.335000000    -4.410000000
C     4.428000000     3.191000000    -2.511000000
O     5.664000000     3.230000000    -2.053000000
C     5.973000000     3.124000000    -0.715000000
C     5.884000000     1.887000000    -0.059000000
H     5.494000000     0.977000000    -0.508000000
C     6.615000000     4.177000000    -0.123000000
H     6.882000000     5.048000000    -0.716000000
C     7.217000000     4.006000000     1.122000000
H     7.906000000     4.742000000     1.528000000
C     7.061000000     2.799000000     1.874000000
H     7.493000000     2.641000000     2.860000000
C     6.291000000     1.750000000     1.308000000
O     6.363000000     0.505000000     1.920000000
C     5.363000000    -0.002000000     2.768000000
C     5.299000000    -1.374000000     3.031000000
H     6.138000000    -1.968000000     2.677000000
C     4.231000000    -1.964000000     3.537000000
O     4.250000000    -3.357000000     3.678000000
C     3.365000000    -4.250000000     4.302000000
C     3.659000000    -4.519000000     5.642000000
H     4.505000000    -4.084000000     6.167000000
C     2.879000000    -5.416000000     6.349000000
H     3.075000000    -5.673000000     7.387000000
C     1.769000000    -6.051000000     5.727000000
H     1.062000000    -6.663000000     6.280000000
C     1.472000000    -5.807000000     4.347000000
C     2.333000000    -4.911000000     3.603000000
H     2.053000000    -4.652000000     2.585000000
C     0.883000000    -2.144000000    -1.531000000
H     0.939000000    -2.585000000    -2.523000000
C     0.045000000    -1.019000000    -1.280000000
H    -0.595000000    -0.643000000    -2.075000000
C    -0.084000000    -0.544000000    -0.030000000
C    -0.962000000     0.652000000     0.153000000
H    -0.654000000     1.237000000     1.022000000
H    -0.972000000     1.334000000    -0.699000000
H    -2.010000000     0.373000000     0.286000000
C     0.688000000    -1.046000000     1.004000000
H     0.551000000    -0.617000000     1.993000000
C     1.543000000    -2.180000000     0.765000000
H     2.171000000    -2.466000000     1.605000000
C     1.634000000    -2.713000000    -0.559000000
C     2.644000000    -3.744000000    -0.954000000
O     3.449000000    -4.184000000    -0.135000000
O     2.781000000    -4.042000000    -2.150000000
O     7.955000000    -1.021000000    -0.040000000
H     7.051000000    -1.188000000     0.226000000
H     8.037000000    -0.068000000    -0.028000000
O     3.493000000    -1.869000000    -4.184000000
H     3.766000000    -1.149000000    -3.617000000
H     3.096000000    -2.506000000    -3.589000000
O     5.573000000    -2.330000000    -0.606000000
H     4.831000000    -2.759000000    -0.178000000
H     6.234000000    -3.017000000    -0.684000000
O     5.555000000    -7.770000000     3.061000000
H     5.632000000    -8.586000000     2.566000000
H     5.456000000    -7.093000000     2.391000000
O     5.656000000    -3.827000000    -6.297000000
H     6.032000000    -3.230000000    -5.649000000
H     6.104000000    -3.606000000    -7.114000000
O     3.172000000    -9.040000000     1.809000000
H     2.286000000    -9.111000000     1.455000000
H     3.047000000    -8.969000000     2.755000000
O     4.792000000    -8.865000000    -3.640000000
H     5.606000000    -8.786000000    -4.136000000
H     5.023000000    -8.588000000    -2.753000000
O     5.691000000    -0.972000000    -2.808000000
H     5.591000000    -1.439000000    -1.979000000
H     6.026000000    -1.632000000    -3.415000000
O     5.493000000    -5.541000000     1.602000000
H     6.195000000    -5.631000000     0.957000000
H     4.908000000    -4.883000000     1.227000000
O     1.891000000    -5.711000000    -3.782000000
H     2.161000000    -6.463000000    -3.254000000
H     2.175000000    -4.949000000    -3.278000000
O     8.808000000    -4.306000000     1.396000000
H     9.668000000    -4.475000000     1.011000000
H     8.198000000    -4.389000000     0.663000000
O     3.066000000    -5.602000000    -6.123000000
H     3.488000000    -4.824000000    -6.487000000
H     2.617000000    -5.286000000    -5.339000000
O     0.985000000    -8.245000000    -1.855000000
H     1.591000000    -7.662000000    -1.397000000
H     0.198000000    -7.717000000    -1.986000000
O     0.706000000    -7.198000000    -6.096000000
H     1.056000000    -6.817000000    -5.291000000
H     0.555000000    -6.447000000    -6.670000000
O     2.514000000    -2.894000000    -6.630000000
H     2.738000000    -2.528000000    -5.774000000
H     2.801000000    -2.230000000    -7.256000000
O     6.973000000    -6.959000000    -2.791000000
H     7.815000000    -7.076000000    -3.232000000
H     6.564000000    -6.224000000    -3.248000000
O     2.781000000    -6.866000000    -0.576000000
H     3.005000000    -5.936000000    -0.565000000
H     3.223000000    -7.228000000     0.192000000
O     5.104000000    -5.031000000    -3.668000000
H     5.103000000    -4.642000000    -4.542000000
H     4.423000000    -4.555000000    -3.193000000
O     7.451000000    -4.549000000    -0.805000000
H     7.098000000    -5.314000000    -1.258000000
H     8.237000000    -4.318000000    -1.300000000
