218
-1467.40701
C    -0.321000000    -1.531000000     4.933000000
H    -1.385000000    -1.620000000     5.135000000
C     0.121000000    -0.341000000     4.314000000
C     1.492000000    -0.198000000     4.077000000
H     1.775000000     0.722000000     3.571000000
C    -0.779000000     0.851000000     3.940000000
O    -2.146000000     0.654000000     4.355000000
H    -0.795000000     0.845000000     2.840000000
O    -0.255000000     2.162000000     4.330000000
C    -0.301000000     3.129000000     3.283000000
C     0.917000000     3.497000000     2.716000000
H     1.832000000     3.050000000     3.096000000
C     0.979000000     4.319000000     1.653000000
O     2.266000000     4.457000000     1.111000000
C    -0.150000000     4.861000000     1.065000000
C    -0.062000000     5.695000000    -0.131000000
H    -0.915000000     6.376000000    -0.140000000
C    -0.086000000     4.859000000    -1.424000000
C    -1.288000000     4.543000000    -2.047000000
H    -2.210000000     4.891000000    -1.590000000
H     0.848000000     6.299000000    -0.126000000
C    -1.375000000     4.631000000     1.660000000
H    -2.324000000     4.954000000     1.240000000
C    -1.488000000     3.724000000     2.763000000
C    -2.862000000     3.413000000     3.292000000
H    -3.545000000     4.186000000     2.933000000
H    -2.984000000     3.518000000     4.372000000
C    -3.464000000     2.066000000     2.872000000
C    -4.321000000     2.078000000     1.800000000
H    -4.640000000     3.049000000     1.430000000
C    -3.110000000     0.792000000     3.405000000
C    -3.594000000    -0.325000000     2.818000000
H    -3.213000000    -1.311000000     3.072000000
C    -4.467000000    -0.278000000     1.769000000
O    -4.738000000    -1.555000000     1.273000000
C    -3.933000000    -1.985000000     0.179000000
C    -3.577000000    -3.487000000     0.253000000
C    -3.432000000    -4.212000000    -0.967000000
H    -3.563000000    -3.664000000    -1.897000000
C    -3.431000000    -4.180000000     1.455000000
H    -3.508000000    -3.625000000     2.386000000
O    -4.511000000    -1.668000000    -1.071000000
H    -2.992000000    -1.441000000     0.350000000
C    -4.898000000     0.931000000     1.208000000
C    -5.665000000     0.949000000    -0.049000000
H    -6.225000000     1.886000000    -0.087000000
H    -6.383000000     0.129000000    -0.124000000
C    -4.688000000     0.836000000    -1.233000000
C    -4.131000000     2.001000000    -1.782000000
H    -4.458000000     2.936000000    -1.334000000
C    -4.336000000    -0.429000000    -1.756000000
C    -3.510000000    -0.551000000    -2.898000000
H    -3.184000000    -1.541000000    -3.206000000
C    -2.958000000     0.649000000    -3.419000000
O    -1.953000000     0.510000000    -4.366000000
C    -0.596000000     0.816000000    -4.002000000
C     0.383000000    -0.346000000    -4.237000000
C    -0.083000000    -1.614000000    -4.579000000
H    -1.153000000    -1.784000000    -4.669000000
C     1.763000000    -0.155000000    -4.043000000
H     2.163000000     0.796000000    -3.701000000
O    -0.267000000     2.082000000    -4.572000000
H    -0.650000000     0.891000000    -2.906000000
C    -3.315000000     1.934000000    -2.939000000
C    -2.760000000     3.265000000    -3.492000000
H    -3.379000000     4.067000000    -3.086000000
H    -2.843000000     3.331000000    -4.579000000
C    -1.363000000     3.659000000    -3.114000000
C    -0.209000000     3.121000000    -3.657000000
C     1.015000000     3.451000000    -3.045000000
H     1.995000000     3.046000000    -3.285000000
C     1.048000000     4.358000000    -1.977000000
O     2.272000000     4.454000000    -1.354000000
C     2.584000000     3.728000000    -0.158000000
H     2.076000000     2.767000000    -0.322000000
C     4.039000000     3.311000000    -0.113000000
C     4.721000000     2.940000000     1.072000000
H     4.193000000     3.008000000     2.020000000
C     4.858000000     3.171000000    -1.279000000
H     4.485000000     3.582000000    -2.213000000
C     6.187000000     2.632000000    -1.321000000
O     6.832000000     2.355000000    -2.512000000
C     6.767000000     2.254000000    -0.171000000
H     7.779000000     1.856000000    -0.151000000
C     6.043000000     2.455000000     1.032000000
O     6.660000000     2.037000000     2.129000000
C     6.028000000     1.455000000     3.220000000
C     5.297000000     0.234000000     3.075000000
H     5.304000000    -0.353000000     2.161000000
C     5.941000000     2.285000000     4.289000000
H     6.468000000     3.236000000     4.288000000
C     5.015000000     1.964000000     5.319000000
H     4.891000000     2.637000000     6.163000000
C     4.355000000     0.718000000     5.253000000
H     3.672000000     0.450000000     6.055000000
C     4.518000000    -0.163000000     4.136000000
O     3.665000000    -1.228000000     4.043000000
C     2.358000000    -1.262000000     4.360000000
C     1.847000000    -2.438000000     4.818000000
H     2.539000000    -3.255000000     5.005000000
C     0.543000000    -2.593000000     5.162000000
O     0.130000000    -3.708000000     5.696000000
C    -1.045000000    -4.357000000     5.356000000
C    -1.389000000    -4.808000000     4.102000000
H    -0.692000000    -4.691000000     3.276000000
C    -1.928000000    -4.591000000     6.405000000
H    -1.638000000    -4.207000000     7.379000000
C    -3.116000000    -5.220000000     6.152000000
H    -3.782000000    -5.525000000     6.955000000
C    -3.453000000    -5.688000000     4.922000000
H    -4.248000000    -6.429000000     4.891000000
C    -2.547000000    -5.534000000     3.856000000
O    -2.725000000    -6.169000000     2.619000000
C    -3.047000000    -5.535000000     1.443000000
C    -2.871000000    -6.261000000     0.222000000
H    -2.586000000    -7.308000000     0.288000000
C    -3.029000000    -5.535000000    -0.928000000
O    -2.752000000    -6.233000000    -2.119000000
C    -2.353000000    -5.696000000    -3.385000000
C    -1.114000000    -5.019000000    -3.642000000
H    -0.368000000    -5.069000000    -2.853000000
C    -3.245000000    -5.744000000    -4.443000000
H    -4.258000000    -6.074000000    -4.223000000
C    -3.065000000    -4.989000000    -5.648000000
H    -3.825000000    -4.915000000    -6.422000000
C    -1.790000000    -4.416000000    -5.872000000
H    -1.589000000    -3.974000000    -6.845000000
C    -0.815000000    -4.438000000    -4.894000000
O     0.406000000    -3.903000000    -5.206000000
C     0.870000000    -2.657000000    -4.737000000
C     2.221000000    -2.494000000    -4.572000000
H     2.882000000    -3.345000000    -4.714000000
C     2.661000000    -1.203000000    -4.293000000
O     4.029000000    -1.086000000    -4.084000000
C     4.729000000     0.055000000    -4.332000000
C     4.701000000     0.680000000    -5.576000000
H     4.144000000     0.109000000    -6.315000000
C     5.469000000     1.816000000    -5.873000000
H     5.491000000     2.294000000    -6.849000000
C     6.228000000     2.360000000    -4.872000000
H     6.816000000     3.249000000    -5.086000000
C     6.109000000     1.793000000    -3.578000000
C     5.357000000     0.604000000    -3.315000000
H     5.264000000     0.230000000    -2.299000000
C     2.239000000    -0.873000000     0.561000000
H     3.127000000    -0.785000000     1.180000000
C     1.285000000     0.124000000     0.554000000
H     1.408000000     1.053000000     1.104000000
C     0.045000000    -0.114000000    -0.074000000
C    -1.081000000     0.890000000     0.171000000
H    -1.655000000     0.957000000    -0.756000000
H    -1.773000000     0.517000000     0.929000000
H    -0.842000000     1.931000000     0.397000000
C    -0.086000000    -1.197000000    -0.907000000
H    -0.965000000    -1.425000000    -1.505000000
C     0.957000000    -2.094000000    -1.044000000
H     0.852000000    -2.986000000    -1.656000000
C     2.109000000    -2.040000000    -0.233000000
C     3.044000000    -3.225000000    -0.057000000
O     2.750000000    -4.307000000    -0.467000000
O     4.072000000    -3.104000000     0.607000000
O     5.862000000    -1.929000000    -0.785000000
H     6.006000000    -2.594000000    -1.458000000
H     5.015000000    -2.158000000    -0.401000000
O     2.510000000    -8.339000000    -2.242000000
H     3.399000000    -8.488000000    -2.565000000
H     2.625000000    -8.114000000    -1.319000000
O     6.093000000    -7.023000000    -1.713000000
H     6.281000000    -6.166000000    -2.095000000
H     5.521000000    -6.834000000    -0.969000000
O     4.653000000    -7.822000000    -3.823000000
H     5.044000000    -7.506000000    -3.008000000
H     4.612000000    -7.048000000    -4.385000000
O     6.398000000    -3.079000000    -4.978000000
H     7.078000000    -2.406000000    -4.974000000
H     5.816000000    -2.828000000    -5.696000000
O     4.857000000    -4.126000000     3.397000000
H     4.512000000    -3.636000000     2.651000000
H     5.785000000    -4.248000000     3.194000000
O     1.533000000    -6.636000000     2.896000000
H     1.683000000    -6.240000000     2.038000000
H     2.234000000    -6.287000000     3.447000000
O     3.623000000    -6.155000000     4.704000000
H     4.132000000    -5.596000000     4.117000000
H     4.244000000    -6.822000000     4.998000000
O     2.862000000    -7.856000000     0.406000000
H     3.238000000    -8.267000000     1.185000000
H     3.293000000    -7.003000000     0.355000000
O     0.034000000    -8.441000000     0.575000000
H    -0.254000000    -7.597000000     0.228000000
H     0.900000000    -8.266000000     0.943000000
O     0.369000000    -5.032000000     0.659000000
H     1.161000000    -4.718000000     0.223000000
H    -0.172000000    -4.250000000     0.765000000
O     8.543000000    -0.862000000    -0.834000000
H     7.639000000    -1.176000000    -0.843000000
H     8.893000000    -1.119000000    -1.687000000
O     6.787000000    -3.551000000     1.422000000
H     6.021000000    -3.143000000     1.018000000
H     7.490000000    -3.427000000     0.784000000
O     6.101000000    -3.397000000     5.776000000
H     6.471000000    -4.266000000     5.930000000
H     5.621000000    -3.484000000     4.952000000
O     8.635000000    -3.985000000    -0.738000000
H     8.022000000    -4.000000000    -1.473000000
H     9.477000000    -3.762000000    -1.134000000
O     6.194000000    -4.591000000    -2.855000000
H     6.515000000    -4.195000000    -3.665000000
H     5.243000000    -4.618000000    -2.961000000
O     3.542000000    -5.238000000    -2.848000000
H     3.069000000    -5.587000000    -3.603000000
H     2.884000000    -5.187000000    -2.155000000
O     0.717000000    -7.523000000    -4.163000000
H     1.305000000    -7.838000000    -3.477000000
H     1.291000000    -7.077000000    -4.785000000
O     4.743000000    -5.884000000     0.285000000
H     4.150000000    -5.174000000     0.040000000
H     5.330000000    -5.494000000     0.933000000
