218
-1461.67452
C    -2.410000000     0.171000000    -5.342000000
H    -2.492000000     1.254000000    -5.315000000
C    -2.828000000    -0.524000000    -4.183000000
C    -2.662000000    -1.938000000    -4.234000000
H    -2.991000000    -2.474000000    -3.348000000
C    -3.329000000     0.092000000    -2.886000000
O    -3.712000000     1.448000000    -3.106000000
H    -2.532000000     0.015000000    -2.132000000
O    -4.478000000    -0.584000000    -2.377000000
C    -4.651000000    -0.660000000    -1.010000000
C    -4.289000000    -1.835000000    -0.414000000
H    -3.873000000    -2.694000000    -0.935000000
C    -4.201000000    -1.924000000     0.940000000
O    -3.559000000    -3.083000000     1.467000000
C    -4.526000000    -0.798000000     1.799000000
C    -4.482000000    -0.842000000     3.351000000
H    -5.122000000    -0.064000000     3.773000000
C    -3.130000000    -0.553000000     3.820000000
C    -2.767000000     0.758000000     4.207000000
H    -3.477000000     1.572000000     4.084000000
H    -4.780000000    -1.848000000     3.654000000
C    -4.884000000     0.401000000     1.160000000
H    -5.149000000     1.299000000     1.712000000
C    -4.933000000     0.522000000    -0.211000000
C    -5.301000000     1.881000000    -0.817000000
H    -5.917000000     2.390000000    -0.072000000
H    -5.883000000     1.786000000    -1.736000000
C    -4.015000000     2.688000000    -1.123000000
C    -3.381000000     3.567000000    -0.220000000
H    -3.759000000     3.660000000     0.795000000
C    -3.257000000     2.437000000    -2.265000000
C    -2.030000000     3.078000000    -2.528000000
H    -1.534000000     2.842000000    -3.466000000
C    -1.544000000     4.066000000    -1.689000000
O    -0.293000000     4.486000000    -1.944000000
C     0.735000000     3.926000000    -1.058000000
C     1.902000000     3.463000000    -1.913000000
C     3.189000000     3.357000000    -1.327000000
H     3.266000000     3.761000000    -0.321000000
C     1.650000000     2.717000000    -3.119000000
H     0.630000000     2.647000000    -3.488000000
O     1.047000000     4.867000000     0.000000000
H     0.325000000     3.083000000    -0.482000000
C    -2.209000000     4.300000000    -0.513000000
C    -1.801000000     5.276000000     0.532000000
H    -2.590000000     5.895000000     0.967000000
H    -1.182000000     6.008000000     0.009000000
C    -0.888000000     4.516000000     1.462000000
C    -1.397000000     3.972000000     2.650000000
H    -2.450000000     3.978000000     2.920000000
C     0.538000000     4.456000000     1.250000000
C     1.377000000     3.792000000     2.143000000
H     2.385000000     3.511000000     1.850000000
C     0.860000000     3.211000000     3.316000000
O     1.662000000     2.481000000     4.124000000
C     1.594000000     1.028000000     3.781000000
C     3.007000000     0.416000000     3.667000000
C     4.105000000     1.197000000     3.437000000
H     3.861000000     2.256000000     3.398000000
C     3.200000000    -0.948000000     3.883000000
H     2.299000000    -1.521000000     4.087000000
O     0.847000000     0.339000000     4.851000000
H     1.187000000     0.936000000     2.763000000
C    -0.551000000     3.257000000     3.535000000
C    -1.184000000     2.572000000     4.726000000
H    -2.067000000     3.113000000     5.073000000
H    -0.449000000     2.627000000     5.532000000
C    -1.466000000     1.156000000     4.482000000
C    -0.502000000     0.142000000     4.671000000
C    -0.861000000    -1.147000000     4.335000000
H    -0.066000000    -1.872000000     4.182000000
C    -2.133000000    -1.481000000     3.887000000
O    -2.397000000    -2.766000000     3.487000000
C    -2.272000000    -2.977000000     2.038000000
H    -1.812000000    -2.042000000     1.684000000
C    -1.396000000    -4.080000000     1.603000000
C    -1.318000000    -4.449000000     0.272000000
H    -2.029000000    -4.104000000    -0.475000000
C    -0.549000000    -4.722000000     2.523000000
H    -0.558000000    -4.389000000     3.557000000
C     0.369000000    -5.692000000     2.152000000
O     1.304000000    -6.140000000     3.059000000
C     0.597000000    -5.890000000     0.820000000
H     1.373000000    -6.564000000     0.466000000
C    -0.344000000    -5.359000000    -0.128000000
O    -0.172000000    -5.686000000    -1.451000000
C    -1.197000000    -5.745000000    -2.276000000
C    -1.116000000    -4.888000000    -3.375000000
H    -0.160000000    -4.393000000    -3.520000000
C    -2.306000000    -6.565000000    -1.963000000
H    -2.312000000    -7.133000000    -1.037000000
C    -3.380000000    -6.481000000    -2.818000000
H    -4.283000000    -7.051000000    -2.613000000
C    -3.320000000    -5.582000000    -3.922000000
H    -4.196000000    -5.417000000    -4.543000000
C    -2.159000000    -4.864000000    -4.250000000
O    -2.062000000    -4.048000000    -5.354000000
C    -2.112000000    -2.625000000    -5.316000000
C    -1.723000000    -1.915000000    -6.416000000
H    -1.236000000    -2.446000000    -7.230000000
C    -1.862000000    -0.524000000    -6.436000000
O    -1.306000000     0.237000000    -7.455000000
C    -0.288000000     1.106000000    -7.185000000
C     0.631000000     0.779000000    -6.178000000
H     0.667000000    -0.169000000    -5.648000000
C    -0.354000000     2.349000000    -7.825000000
H    -1.179000000     2.574000000    -8.497000000
C     0.789000000     3.201000000    -7.628000000
H     0.939000000     4.086000000    -8.241000000
C     1.734000000     2.889000000    -6.685000000
H     2.601000000     3.541000000    -6.618000000
C     1.655000000     1.734000000    -5.951000000
O     2.594000000     1.461000000    -4.974000000
C     2.762000000     2.158000000    -3.823000000
C     4.021000000     2.262000000    -3.312000000
H     4.864000000     1.837000000    -3.851000000
C     4.242000000     2.790000000    -2.057000000
O     5.564000000     2.697000000    -1.595000000
C     5.978000000     3.004000000    -0.346000000
C     6.069000000     1.983000000     0.655000000
H     5.867000000     0.921000000     0.539000000
C     6.210000000     4.320000000    -0.051000000
H     6.162000000     5.058000000    -0.847000000
C     6.448000000     4.719000000     1.230000000
H     6.666000000     5.747000000     1.509000000
C     6.436000000     3.837000000     2.287000000
H     6.653000000     4.177000000     3.296000000
C     6.260000000     2.508000000     1.985000000
O     6.436000000     1.542000000     2.931000000
C     5.427000000     0.719000000     3.285000000
C     5.552000000    -0.658000000     3.381000000
H     6.538000000    -1.115000000     3.353000000
C     4.523000000    -1.476000000     3.735000000
O     4.758000000    -2.868000000     3.728000000
C     3.759000000    -3.760000000     4.135000000
C     3.493000000    -3.785000000     5.541000000
H     4.051000000    -3.080000000     6.152000000
C     2.506000000    -4.504000000     6.146000000
H     2.314000000    -4.483000000     7.216000000
C     1.730000000    -5.321000000     5.272000000
H     1.051000000    -6.039000000     5.723000000
C     2.006000000    -5.326000000     3.865000000
C     2.952000000    -4.526000000     3.292000000
H     3.141000000    -4.471000000     2.223000000
C     1.338000000    -1.357000000    -2.284000000
H     1.414000000    -1.359000000    -3.369000000
C     0.404000000    -0.567000000    -1.680000000
H    -0.271000000     0.062000000    -2.256000000
C     0.338000000    -0.583000000    -0.276000000
C    -0.477000000     0.418000000     0.453000000
H    -0.719000000     1.303000000    -0.139000000
H    -1.302000000    -0.164000000     0.870000000
H     0.061000000     0.837000000     1.305000000
C     1.003000000    -1.472000000     0.457000000
H     0.846000000    -1.483000000     1.533000000
C     1.843000000    -2.372000000    -0.193000000
H     2.286000000    -3.180000000     0.383000000
C     2.100000000    -2.263000000    -1.540000000
C     3.171000000    -3.122000000    -2.210000000
O     3.646000000    -4.003000000    -1.551000000
O     3.401000000    -2.986000000    -3.405000000
O     7.309000000    -2.136000000     0.611000000
H     6.535000000    -1.744000000     0.207000000
H     7.712000000    -2.648000000    -0.090000000
O     4.315000000    -0.797000000    -4.176000000
H     3.964000000    -1.667000000    -3.984000000
H     3.542000000    -0.261000000    -4.355000000
O     5.033000000    -1.494000000    -0.818000000
H     4.335000000    -0.883000000    -1.056000000
H     4.574000000    -2.291000000    -0.553000000
O     6.746000000    -3.480000000    -5.182000000
H     7.379000000    -3.021000000    -4.631000000
H     6.834000000    -3.070000000    -6.042000000
O     4.847000000    -9.494000000    -2.026000000
H     4.722000000    -9.604000000    -2.969000000
H     4.978000000    -8.553000000    -1.910000000
O     6.721000000    -1.369000000    -2.912000000
H     6.454000000    -1.514000000    -2.005000000
H     5.916000000    -1.479000000    -3.419000000
O     5.489000000     0.739000000    -6.528000000
H     4.928000000     0.359000000    -5.852000000
H     6.308000000     0.940000000    -6.075000000
O     7.408000000     0.928000000    -4.686000000
H     6.988000000     0.459000000    -3.965000000
H     8.316000000     0.626000000    -4.671000000
O     8.813000000    -0.033000000    -1.358000000
H     9.429000000    -0.068000000    -2.090000000
H     7.960000000     0.104000000    -1.770000000
O     5.344000000    -4.607000000     0.661000000
H     6.246000000    -4.883000000     0.498000000
H     4.935000000    -4.605000000    -0.205000000
O     3.269000000    -7.496000000    -3.983000000
H     3.394000000    -7.023000000    -3.160000000
H     3.266000000    -6.812000000    -4.654000000
O     0.585000000    -7.586000000    -4.082000000
H     0.758000000    -6.741000000    -3.668000000
H     1.430000000    -8.034000000    -4.076000000
O     1.463000000    -5.925000000    -7.385000000
H     2.103000000    -5.363000000    -7.822000000
H     1.005000000    -5.341000000    -6.780000000
O     1.841000000    -3.225000000    -5.908000000
H     2.326000000    -3.105000000    -5.092000000
H     2.514000000    -3.233000000    -6.588000000
O     6.815000000    -7.049000000    -4.397000000
H     6.817000000    -7.572000000    -5.199000000
H     6.113000000    -6.411000000    -4.529000000
O     3.705000000    -6.764000000    -1.487000000
H     3.839000000    -5.851000000    -1.742000000
H     3.714000000    -6.750000000    -0.530000000
O     4.496000000    -2.605000000    -7.119000000
H     5.327000000    -2.309000000    -7.491000000
H     4.718000000    -2.886000000    -6.231000000
O     4.717000000    -4.979000000    -4.467000000
H     5.438000000    -4.383000000    -4.669000000
H     4.185000000    -4.505000000    -3.828000000
O     6.626000000    -4.485000000    -1.951000000
H     5.844000000    -3.957000000    -2.107000000
H     7.288000000    -4.111000000    -2.533000000
