218
-1447.05752
C    -0.746000000    -0.271000000     5.622000000
H    -1.743000000    -0.686000000     5.502000000
C    -0.329000000     0.908000000     4.898000000
C     0.991000000     1.311000000     5.096000000
H     1.357000000     2.110000000     4.455000000
C    -1.219000000     1.544000000     3.907000000
O    -2.566000000     1.207000000     4.212000000
H    -1.070000000     1.121000000     2.903000000
O    -1.106000000     3.006000000     3.868000000
C    -1.130000000     3.606000000     2.747000000
C     0.075000000     3.894000000     2.187000000
H     1.026000000     3.852000000     2.712000000
C     0.128000000     4.379000000     0.887000000
O     1.342000000     4.532000000     0.306000000
C    -1.049000000     4.605000000     0.142000000
C    -1.115000000     5.247000000    -1.185000000
H    -1.991000000     5.893000000    -1.271000000
C    -0.986000000     4.269000000    -2.329000000
C    -2.098000000     3.526000000    -2.815000000
H    -3.085000000     3.823000000    -2.471000000
H    -0.279000000     5.926000000    -1.365000000
C    -2.267000000     4.323000000     0.773000000
H    -3.210000000     4.460000000     0.249000000
C    -2.287000000     3.739000000     1.988000000
C    -3.698000000     3.394000000     2.565000000
H    -4.554000000     3.939000000     2.160000000
H    -3.686000000     3.537000000     3.648000000
C    -4.023000000     1.897000000     2.458000000
C    -4.820000000     1.496000000     1.417000000
H    -5.290000000     2.238000000     0.776000000
C    -3.505000000     0.912000000     3.251000000
C    -3.698000000    -0.459000000     3.026000000
H    -3.233000000    -1.170000000     3.704000000
C    -4.407000000    -0.892000000     1.873000000
O    -4.262000000    -2.200000000     1.504000000
C    -3.221000000    -2.411000000     0.521000000
C    -2.240000000    -3.520000000     0.889000000
C    -1.438000000    -4.099000000    -0.091000000
H    -1.529000000    -3.780000000    -1.126000000
C    -2.012000000    -3.930000000     2.203000000
H    -2.611000000    -3.442000000     2.967000000
O    -3.826000000    -2.546000000    -0.797000000
H    -2.691000000    -1.453000000     0.414000000
C    -4.927000000     0.140000000     1.017000000
C    -5.595000000    -0.233000000    -0.287000000
H    -6.301000000     0.476000000    -0.724000000
H    -6.179000000    -1.153000000    -0.218000000
C    -4.566000000    -0.288000000    -1.454000000
C    -4.383000000     0.817000000    -2.392000000
H    -4.981000000     1.716000000    -2.271000000
C    -3.899000000    -1.503000000    -1.709000000
C    -2.957000000    -1.638000000    -2.776000000
H    -2.408000000    -2.575000000    -2.800000000
C    -2.739000000    -0.536000000    -3.591000000
O    -1.836000000    -0.692000000    -4.647000000
C    -0.496000000    -0.166000000    -4.388000000
C     0.652000000    -1.135000000    -4.782000000
C     0.333000000    -2.489000000    -4.848000000
H    -0.640000000    -2.903000000    -4.595000000
C     1.886000000    -0.650000000    -4.940000000
H     2.019000000     0.409000000    -4.735000000
O    -0.432000000     1.146000000    -5.031000000
H    -0.485000000    -0.079000000    -3.291000000
C    -3.406000000     0.666000000    -3.385000000
C    -3.212000000     1.873000000    -4.260000000
H    -4.089000000     2.517000000    -4.168000000
H    -3.238000000     1.592000000    -5.315000000
C    -1.969000000     2.611000000    -3.876000000
C    -0.698000000     2.311000000    -4.322000000
C     0.467000000     2.813000000    -3.666000000
H     1.447000000     2.391000000    -3.870000000
C     0.309000000     3.863000000    -2.763000000
O     1.384000000     4.256000000    -2.049000000
C     1.627000000     3.606000000    -0.767000000
H     0.972000000     2.729000000    -0.661000000
C     3.101000000     3.131000000    -0.713000000
C     3.573000000     2.714000000     0.557000000
H     2.975000000     2.576000000     1.454000000
C     3.929000000     3.080000000    -1.861000000
H     3.641000000     3.460000000    -2.838000000
C     5.142000000     2.416000000    -1.708000000
O     5.936000000     2.342000000    -2.802000000
C     5.673000000     2.046000000    -0.467000000
H     6.628000000     1.536000000    -0.373000000
C     4.890000000     2.250000000     0.638000000
O     5.323000000     1.827000000     1.861000000
C     4.940000000     2.167000000     3.097000000
C     4.242000000     1.305000000     3.902000000
H     3.830000000     0.439000000     3.390000000
C     5.229000000     3.464000000     3.547000000
H     5.677000000     4.277000000     2.981000000
C     4.967000000     3.767000000     4.881000000
H     5.253000000     4.693000000     5.372000000
C     4.349000000     2.872000000     5.715000000
H     4.139000000     3.126000000     6.751000000
C     3.986000000     1.623000000     5.202000000
O     3.253000000     0.805000000     5.964000000
C     1.871000000     0.542000000     5.979000000
C     1.361000000    -0.575000000     6.674000000
H     2.058000000    -1.061000000     7.352000000
C     0.019000000    -0.936000000     6.551000000
O    -0.519000000    -1.997000000     7.292000000
C    -1.295000000    -2.997000000     6.745000000
C    -0.745000000    -3.591000000     5.602000000
H     0.274000000    -3.371000000     5.293000000
C    -2.592000000    -3.300000000     7.106000000
H    -2.991000000    -2.834000000     8.004000000
C    -3.317000000    -4.281000000     6.477000000
H    -4.306000000    -4.538000000     6.848000000
C    -2.772000000    -4.952000000     5.423000000
H    -3.391000000    -5.668000000     4.888000000
C    -1.497000000    -4.641000000     4.978000000
O    -0.884000000    -5.260000000     3.895000000
C    -1.203000000    -4.968000000     2.534000000
C    -0.428000000    -5.545000000     1.603000000
H     0.281000000    -6.320000000     1.881000000
C    -0.519000000    -5.111000000     0.288000000
O     0.332000000    -5.696000000    -0.706000000
C     0.075000000    -5.855000000    -2.035000000
C     0.724000000    -5.046000000    -2.981000000
H     1.464000000    -4.352000000    -2.593000000
C    -0.782000000    -6.891000000    -2.412000000
H    -1.182000000    -7.477000000    -1.588000000
C    -1.083000000    -7.206000000    -3.727000000
H    -1.685000000    -8.073000000    -3.986000000
C    -0.388000000    -6.422000000    -4.668000000
H    -0.524000000    -6.638000000    -5.725000000
C     0.561000000    -5.385000000    -4.323000000
O     1.157000000    -4.654000000    -5.332000000
C     1.401000000    -3.292000000    -5.242000000
C     2.603000000    -2.792000000    -5.648000000
H     3.362000000    -3.468000000    -6.034000000
C     2.937000000    -1.433000000    -5.496000000
O     4.162000000    -0.905000000    -5.979000000
C     4.691000000     0.376000000    -5.711000000
C     4.998000000     1.223000000    -6.729000000
H     4.822000000     0.820000000    -7.722000000
C     5.672000000     2.440000000    -6.476000000
H     5.712000000     3.075000000    -7.357000000
C     5.828000000     2.840000000    -5.160000000
H     6.230000000     3.826000000    -4.943000000
C     5.554000000     1.977000000    -4.112000000
C     4.942000000     0.775000000    -4.365000000
H     4.719000000    -0.019000000    -3.657000000
C     1.044000000    -1.728000000     2.198000000
H     0.823000000    -2.334000000     3.073000000
C    -0.028000000    -0.987000000     1.685000000
H    -1.028000000    -1.049000000     2.107000000
C     0.179000000    -0.222000000     0.564000000
C    -0.939000000     0.612000000    -0.105000000
H    -0.954000000     0.406000000    -1.177000000
H    -1.958000000     0.380000000     0.212000000
H    -0.823000000     1.685000000     0.059000000
C     1.433000000    -0.188000000     0.004000000
H     1.545000000     0.382000000    -0.915000000
C     2.539000000    -0.733000000     0.635000000
H     3.540000000    -0.477000000     0.299000000
C     2.411000000    -1.506000000     1.798000000
C     3.589000000    -2.104000000     2.510000000
O     4.669000000    -1.672000000     2.232000000
O     3.450000000    -3.077000000     3.229000000
O     4.113000000    -6.669000000     6.616000000
H     4.800000000    -6.096000000     6.956000000
H     4.212000000    -6.624000000     5.665000000
O     5.049000000    -5.098000000     2.238000000
H     4.509000000    -5.329000000     1.483000000
H     4.621000000    -4.328000000     2.613000000
O     7.698000000    -5.085000000     2.202000000
H     7.716000000    -6.018000000     2.412000000
H     6.788000000    -4.910000000     1.962000000
O     6.585000000    -1.782000000    -2.121000000
H     6.221000000    -2.180000000    -1.330000000
H     7.341000000    -1.282000000    -1.811000000
O     5.600000000    -2.037000000     5.052000000
H     5.021000000    -2.277000000     4.328000000
H     6.426000000    -2.479000000     4.854000000
O     6.402000000    -5.522000000     7.169000000
H     6.330000000    -4.602000000     6.917000000
H     7.183000000    -5.559000000     7.722000000
O     5.515000000    -2.899000000     0.201000000
H     6.258000000    -3.432000000     0.484000000
H     5.304000000    -2.360000000     0.964000000
O     7.905000000    -3.113000000     4.197000000
H     7.754000000    -3.748000000     3.497000000
H     8.825000000    -2.868000000     4.105000000
O     6.986000000     0.553000000     6.089000000
H     6.420000000    -0.140000000     5.749000000
H     6.483000000     1.358000000     5.961000000
O     4.228000000    -7.110000000     3.898000000
H     3.869000000    -7.812000000     3.355000000
H     4.838000000    -6.650000000     3.322000000
O     3.413000000    -6.339000000     0.343000000
H     2.918000000    -6.076000000    -0.433000000
H     3.320000000    -7.291000000     0.377000000
O     7.394000000    -0.867000000     1.770000000
H     7.337000000     0.047000000     2.050000000
H     6.685000000    -1.306000000     2.240000000
O     2.822000000    -4.188000000     5.514000000
H     2.368000000    -5.016000000     5.355000000
H     3.017000000    -3.850000000     4.640000000
O     8.419000000     1.583000000     1.926000000
H     8.282000000     2.503000000     2.152000000
H     8.919000000     1.609000000     1.111000000
O     1.604000000    -6.545000000     4.965000000
H     2.390000000    -6.904000000     4.553000000
H     0.991000000    -6.417000000     4.241000000
O     4.832000000    -2.834000000     7.453000000
H     5.258000000    -2.286000000     6.795000000
H     4.151000000    -3.303000000     6.970000000
O     8.849000000    -1.337000000    -0.527000000
H     8.177000000    -1.265000000     0.152000000
H     9.645000000    -1.005000000    -0.112000000
O     1.883000000    -4.183000000     8.233000000
H     1.444000000    -3.343000000     8.105000000
H     2.217000000    -4.413000000     7.366000000
O     4.182000000    -3.421000000    -1.991000000
H     4.808000000    -2.946000000    -2.538000000
H     4.445000000    -3.216000000    -1.094000000
