218
-1428.29790
C    -0.401000000     0.636000000     5.764000000
H    -1.449000000     0.394000000     5.917000000
C    -0.069000000     1.529000000     4.773000000
C     1.293000000     1.973000000     4.734000000
H     1.684000000     2.636000000     3.967000000
C    -1.074000000     2.072000000     3.814000000
O    -2.443000000     1.855000000     4.228000000
H    -0.992000000     1.552000000     2.848000000
O    -0.910000000     3.480000000     3.663000000
C    -1.014000000     3.985000000     2.439000000
C     0.107000000     4.416000000     1.779000000
H     1.062000000     4.155000000     2.227000000
C     0.104000000     4.899000000     0.476000000
O     1.229000000     5.031000000    -0.209000000
C    -1.139000000     4.911000000    -0.180000000
C    -1.326000000     5.308000000    -1.668000000
H    -2.187000000     5.958000000    -1.842000000
C    -1.268000000     4.159000000    -2.679000000
C    -2.431000000     3.397000000    -3.037000000
H    -3.421000000     3.726000000    -2.730000000
H    -0.494000000     5.992000000    -1.848000000
C    -2.306000000     4.516000000     0.508000000
H    -3.271000000     4.602000000     0.012000000
C    -2.244000000     4.052000000     1.816000000
C    -3.537000000     3.653000000     2.502000000
H    -4.385000000     4.156000000     2.032000000
H    -3.614000000     4.014000000     3.530000000
C    -3.858000000     2.121000000     2.424000000
C    -4.749000000     1.691000000     1.474000000
H    -5.066000000     2.395000000     0.709000000
C    -3.346000000     1.332000000     3.398000000
C    -3.644000000    -0.024000000     3.330000000
H    -3.169000000    -0.751000000     3.984000000
C    -4.538000000    -0.505000000     2.351000000
O    -4.392000000    -1.896000000     2.181000000
C    -3.502000000    -2.356000000     1.109000000
C    -2.553000000    -3.546000000     1.446000000
C    -2.348000000    -4.499000000     0.474000000
H    -2.915000000    -4.500000000    -0.453000000
C    -1.768000000    -3.609000000     2.586000000
H    -1.918000000    -2.828000000     3.327000000
O    -4.244000000    -2.634000000    -0.110000000
H    -2.866000000    -1.494000000     0.863000000
C    -5.075000000     0.340000000     1.374000000
C    -5.761000000    -0.153000000     0.110000000
H    -6.459000000     0.632000000    -0.190000000
H    -6.324000000    -1.069000000     0.304000000
C    -4.821000000    -0.454000000    -1.077000000
C    -4.565000000     0.485000000    -2.055000000
H    -4.964000000     1.495000000    -2.017000000
C    -4.111000000    -1.710000000    -1.127000000
C    -3.137000000    -1.887000000    -2.082000000
H    -2.574000000    -2.817000000    -2.069000000
C    -2.995000000    -0.995000000    -3.081000000
O    -2.152000000    -1.283000000    -4.074000000
C    -0.771000000    -0.733000000    -3.919000000
C     0.194000000    -1.737000000    -4.444000000
C     0.023000000    -3.137000000    -4.503000000
H    -0.972000000    -3.541000000    -4.333000000
C     1.581000000    -1.357000000    -4.505000000
H     1.785000000    -0.297000000    -4.373000000
O    -0.649000000     0.548000000    -4.654000000
H    -0.588000000    -0.552000000    -2.850000000
C    -3.785000000     0.135000000    -3.130000000
C    -3.504000000     1.275000000    -4.139000000
H    -4.328000000     1.973000000    -4.297000000
H    -3.262000000     0.928000000    -5.145000000
C    -2.288000000     2.206000000    -3.713000000
C    -0.998000000     1.790000000    -4.095000000
C     0.098000000     2.620000000    -3.819000000
H     1.095000000     2.232000000    -4.017000000
C    -0.013000000     3.743000000    -3.053000000
O     1.127000000     4.293000000    -2.489000000
C     1.581000000     3.970000000    -1.189000000
H     1.008000000     3.141000000    -0.747000000
C     3.040000000     3.627000000    -1.239000000
C     3.604000000     3.038000000    -0.126000000
H     2.996000000     2.930000000     0.768000000
C     3.735000000     3.483000000    -2.447000000
H     3.185000000     3.652000000    -3.369000000
C     5.027000000     2.822000000    -2.488000000
O     5.671000000     2.587000000    -3.673000000
C     5.616000000     2.437000000    -1.318000000
H     6.588000000     1.954000000    -1.253000000
C     4.848000000     2.476000000    -0.170000000
O     5.393000000     1.924000000     0.946000000
C     5.269000000     2.486000000     2.226000000
C     4.453000000     1.773000000     3.146000000
H     4.154000000     0.757000000     2.901000000
C     5.804000000     3.694000000     2.521000000
H     6.415000000     4.137000000     1.737000000
C     5.517000000     4.383000000     3.728000000
H     5.907000000     5.365000000     3.983000000
C     4.773000000     3.693000000     4.700000000
H     4.828000000     4.079000000     5.715000000
C     4.229000000     2.382000000     4.379000000
O     3.631000000     1.640000000     5.410000000
C     2.261000000     1.319000000     5.498000000
C     1.906000000     0.291000000     6.375000000
H     2.697000000    -0.230000000     6.909000000
C     0.529000000    -0.030000000     6.511000000
O     0.054000000    -1.069000000     7.257000000
C    -0.133000000    -2.396000000     6.828000000
C    -0.017000000    -2.772000000     5.498000000
H     0.383000000    -2.058000000     4.783000000
C    -0.404000000    -3.391000000     7.767000000
H    -0.517000000    -2.951000000     8.754000000
C    -0.553000000    -4.709000000     7.380000000
H    -0.703000000    -5.481000000     8.130000000
C    -0.448000000    -5.117000000     6.054000000
H    -0.616000000    -6.121000000     5.672000000
C    -0.152000000    -4.140000000     5.119000000
O     0.075000000    -4.575000000     3.883000000
C    -0.794000000    -4.578000000     2.771000000
C    -0.585000000    -5.417000000     1.737000000
H     0.360000000    -5.954000000     1.786000000
C    -1.312000000    -5.413000000     0.574000000
O    -1.132000000    -6.441000000    -0.320000000
C    -1.165000000    -6.388000000    -1.727000000
C    -0.204000000    -5.662000000    -2.487000000
H     0.579000000    -5.109000000    -1.975000000
C    -2.130000000    -7.172000000    -2.391000000
H    -2.986000000    -7.594000000    -1.870000000
C    -2.172000000    -7.230000000    -3.773000000
H    -2.981000000    -7.731000000    -4.300000000
C    -1.129000000    -6.645000000    -4.502000000
H    -1.021000000    -6.706000000    -5.582000000
C    -0.149000000    -5.868000000    -3.844000000
O     0.909000000    -5.397000000    -4.566000000
C     1.140000000    -4.038000000    -4.657000000
C     2.471000000    -3.571000000    -4.721000000
H     3.242000000    -4.338000000    -4.741000000
C     2.659000000    -2.209000000    -4.650000000
O     3.960000000    -1.799000000    -4.604000000
C     4.325000000    -0.520000000    -5.027000000
C     4.445000000    -0.233000000    -6.396000000
H     4.114000000    -0.958000000    -7.135000000
C     4.994000000     0.906000000    -6.866000000
H     5.242000000     1.024000000    -7.918000000
C     5.291000000     1.887000000    -5.922000000
H     5.851000000     2.779000000    -6.188000000
C     5.075000000     1.678000000    -4.565000000
C     4.663000000     0.424000000    -4.120000000
H     4.341000000     0.317000000    -3.087000000
C     2.435000000    -1.297000000     1.978000000
H     2.514000000    -1.747000000     2.964000000
C     1.235000000    -0.728000000     1.710000000
H     0.424000000    -0.842000000     2.426000000
C     0.990000000    -0.118000000     0.491000000
C    -0.361000000     0.435000000     0.087000000
H    -0.387000000     1.377000000    -0.466000000
H    -0.966000000    -0.279000000    -0.476000000
H    -0.995000000     0.569000000     0.967000000
C     2.008000000    -0.078000000    -0.472000000
H     1.735000000     0.360000000    -1.429000000
C     3.279000000    -0.548000000    -0.196000000
H     4.050000000    -0.377000000    -0.943000000
C     3.534000000    -1.244000000     1.058000000
C     4.938000000    -1.758000000     1.337000000
O     5.820000000    -1.559000000     0.488000000
O     5.224000000    -2.226000000     2.449000000
O     3.426000000    -4.501000000     3.768000000
H     3.234000000    -4.499000000     2.831000000
H     4.046000000    -3.781000000     3.887000000
O     8.631000000     0.268000000    -1.525000000
H     8.675000000    -0.380000000    -2.228000000
H     8.500000000    -0.250000000    -0.731000000
O     6.047000000    -2.256000000    -2.076000000
H     5.738000000    -1.957000000    -1.221000000
H     6.996000000    -2.327000000    -1.977000000
O     7.844000000    -1.811000000     3.362000000
H     8.037000000    -0.875000000     3.308000000
H     6.965000000    -1.896000000     2.992000000
O     8.285000000     0.763000000     2.018000000
H     7.439000000     1.008000000     1.643000000
H     8.696000000     1.597000000     2.243000000
O     6.505000000    -4.354000000     1.383000000
H     6.127000000    -3.545000000     1.728000000
H     5.800000000    -4.998000000     1.457000000
O     9.010000000    -4.549000000     0.566000000
H     8.076000000    -4.592000000     0.770000000
H     9.187000000    -3.616000000     0.449000000
O     5.891000000    -0.003000000     6.667000000
H     6.043000000     0.748000000     6.093000000
H     5.747000000     0.382000000     7.532000000
O     4.830000000    -7.107000000     2.077000000
H     4.064000000    -7.230000000     1.516000000
H     5.536000000    -7.565000000     1.622000000
O     3.973000000    -5.170000000    -0.153000000
H     3.509000000    -4.334000000    -0.198000000
H     3.297000000    -5.828000000    -0.314000000
O     6.157000000    -6.127000000    -1.300000000
H     5.348000000    -5.799000000    -0.907000000
H     6.571000000    -6.638000000    -0.605000000
O    10.099000000    -3.727000000     3.093000000
H     9.334000000    -3.273000000     2.739000000
H    10.087000000    -4.584000000     2.667000000
O     3.050000000    -3.761000000     6.458000000
H     2.707000000    -4.253000000     5.712000000
H     3.794000000    -3.275000000     6.103000000
O     7.557000000    -6.176000000     4.356000000
H     7.342000000    -7.083000000     4.571000000
H     7.314000000    -6.084000000     3.435000000
O     3.504000000    -6.693000000     5.163000000
H     4.221000000    -7.235000000     4.832000000
H     3.474000000    -5.945000000     4.568000000
O     5.100000000    -2.370000000     5.185000000
H     5.256000000    -1.477000000     5.491000000
H     5.393000000    -2.366000000     4.274000000
O     6.580000000    -3.270000000     7.413000000
H     6.113000000    -3.121000000     6.591000000
H     7.392000000    -3.706000000     7.152000000
O     8.564000000    -1.792000000     0.477000000
H     7.642000000    -1.958000000     0.278000000
H     8.555000000    -0.997000000     1.010000000
O     2.007000000    -3.330000000    -0.861000000
H     1.348000000    -2.958000000    -1.448000000
H     2.018000000    -2.739000000    -0.108000000
