218
-1469.12043
C    -0.369000000    -0.097000000     5.511000000
H    -1.098000000    -0.840000000     5.199000000
C    -0.392000000     1.204000000     4.990000000
C     0.721000000     2.069000000     5.273000000
H     0.785000000     2.993000000     4.705000000
C    -1.446000000     1.541000000     3.919000000
O    -2.742000000     1.099000000     4.307000000
H    -1.191000000     1.101000000     2.943000000
O    -1.533000000     2.923000000     3.753000000
C    -1.587000000     3.526000000     2.534000000
C    -0.475000000     4.174000000     2.000000000
H     0.393000000     4.268000000     2.647000000
C    -0.546000000     4.755000000     0.767000000
O     0.652000000     5.292000000     0.073000000
C    -1.673000000     4.673000000    -0.044000000
C    -1.740000000     5.157000000    -1.484000000
H    -2.701000000     5.615000000    -1.727000000
C    -1.473000000     4.004000000    -2.393000000
C    -2.510000000     3.160000000    -2.773000000
H    -3.526000000     3.299000000    -2.412000000
H    -1.036000000     5.983000000    -1.602000000
C    -2.772000000     4.004000000     0.517000000
H    -3.709000000     3.929000000    -0.030000000
C    -2.790000000     3.533000000     1.843000000
C    -3.995000000     3.023000000     2.499000000
H    -4.881000000     3.490000000     2.066000000
H    -3.999000000     3.287000000     3.559000000
C    -4.066000000     1.524000000     2.319000000
C    -4.836000000     0.959000000     1.319000000
H    -5.290000000     1.649000000     0.612000000
C    -3.463000000     0.631000000     3.231000000
C    -3.485000000    -0.743000000     3.048000000
H    -2.972000000    -1.383000000     3.763000000
C    -4.066000000    -1.307000000     1.884000000
O    -3.762000000    -2.643000000     1.626000000
C    -2.901000000    -3.011000000     0.481000000
C    -1.890000000    -4.100000000     0.823000000
C    -1.399000000    -4.965000000    -0.224000000
H    -1.721000000    -4.824000000    -1.252000000
C    -1.421000000    -4.232000000     2.101000000
H    -1.659000000    -3.513000000     2.880000000
O    -3.708000000    -3.259000000    -0.676000000
H    -2.216000000    -2.168000000     0.303000000
C    -4.721000000    -0.467000000     0.998000000
C    -5.491000000    -1.063000000    -0.128000000
H    -6.386000000    -0.504000000    -0.409000000
H    -5.854000000    -2.058000000     0.137000000
C    -4.549000000    -1.127000000    -1.286000000
C    -4.448000000     0.043000000    -2.070000000
H    -5.116000000     0.891000000    -1.945000000
C    -3.747000000    -2.222000000    -1.552000000
C    -2.860000000    -2.223000000    -2.641000000
H    -2.279000000    -3.100000000    -2.914000000
C    -2.729000000    -1.087000000    -3.381000000
O    -1.767000000    -1.176000000    -4.375000000
C    -0.505000000    -0.536000000    -4.045000000
C     0.705000000    -1.463000000    -4.462000000
C     0.619000000    -2.882000000    -4.572000000
H    -0.309000000    -3.411000000    -4.367000000
C     1.937000000    -0.858000000    -4.595000000
H     2.037000000     0.144000000    -4.187000000
O    -0.425000000     0.758000000    -4.746000000
H    -0.424000000    -0.335000000    -2.967000000
C    -3.521000000     0.060000000    -3.175000000
C    -3.371000000     1.251000000    -4.114000000
H    -4.258000000     1.828000000    -4.382000000
H    -3.200000000     0.779000000    -5.084000000
C    -2.252000000     2.148000000    -3.690000000
C    -0.850000000     1.958000000    -4.111000000
C     0.143000000     2.816000000    -3.667000000
H     1.136000000     2.490000000    -3.965000000
C    -0.146000000     3.815000000    -2.794000000
O     0.834000000     4.552000000    -2.203000000
C     1.225000000     4.286000000    -0.788000000
H     0.747000000     3.338000000    -0.503000000
C     2.716000000     3.970000000    -0.719000000
C     3.271000000     3.771000000     0.526000000
H     2.683000000     3.835000000     1.438000000
C     3.526000000     3.773000000    -1.858000000
H     3.183000000     3.902000000    -2.881000000
C     4.815000000     3.270000000    -1.663000000
O     5.663000000     3.054000000    -2.732000000
C     5.240000000     2.974000000    -0.452000000
H     6.256000000     2.602000000    -0.356000000
C     4.492000000     3.160000000     0.681000000
O     5.044000000     2.964000000     1.942000000
C     4.506000000     3.394000000     3.146000000
C     3.867000000     2.609000000     4.108000000
H     3.810000000     1.562000000     3.821000000
C     4.637000000     4.721000000     3.454000000
H     5.129000000     5.394000000     2.756000000
C     4.079000000     5.313000000     4.587000000
H     3.956000000     6.393000000     4.562000000
C     3.496000000     4.507000000     5.570000000
H     3.102000000     4.876000000     6.514000000
C     3.398000000     3.150000000     5.300000000
O     2.930000000     2.310000000     6.134000000
C     1.797000000     1.583000000     5.992000000
C     1.824000000     0.329000000     6.506000000
H     2.685000000    -0.028000000     7.066000000
C     0.744000000    -0.545000000     6.264000000
O     0.679000000    -1.747000000     6.951000000
C     0.032000000    -2.904000000     6.444000000
C     0.489000000    -3.428000000     5.233000000
H     1.370000000    -3.117000000     4.676000000
C    -1.136000000    -3.370000000     7.047000000
H    -1.466000000    -2.886000000     7.963000000
C    -1.879000000    -4.356000000     6.330000000
H    -2.823000000    -4.639000000     6.787000000
C    -1.396000000    -4.961000000     5.173000000
H    -2.001000000    -5.728000000     4.696000000
C    -0.209000000    -4.506000000     4.658000000
O     0.378000000    -5.129000000     3.508000000
C    -0.397000000    -5.189000000     2.316000000
C     0.153000000    -5.938000000     1.280000000
H     0.955000000    -6.657000000     1.430000000
C    -0.350000000    -5.871000000    -0.023000000
O     0.219000000    -6.732000000    -0.879000000
C    -0.025000000    -6.622000000    -2.230000000
C     0.840000000    -5.804000000    -2.999000000
H     1.728000000    -5.414000000    -2.507000000
C    -0.991000000    -7.346000000    -2.847000000
H    -1.689000000    -7.864000000    -2.195000000
C    -1.115000000    -7.241000000    -4.241000000
H    -1.853000000    -7.805000000    -4.804000000
C    -0.222000000    -6.477000000    -4.990000000
H    -0.330000000    -6.487000000    -6.071000000
C     0.817000000    -5.776000000    -4.356000000
O     1.718000000    -5.004000000    -5.066000000
C     1.692000000    -3.632000000    -4.950000000
C     2.932000000    -2.969000000    -5.268000000
H     3.803000000    -3.578000000    -5.494000000
C     3.052000000    -1.614000000    -4.978000000
O     4.317000000    -1.035000000    -4.803000000
C     4.625000000     0.240000000    -4.868000000
C     4.784000000     0.766000000    -6.168000000
H     4.403000000     0.172000000    -6.994000000
C     5.089000000     2.106000000    -6.319000000
H     5.189000000     2.629000000    -7.267000000
C     5.376000000     2.819000000    -5.157000000
H     5.626000000     3.872000000    -5.258000000
C     5.286000000     2.309000000    -3.852000000
C     4.856000000     0.997000000    -3.720000000
H     4.970000000     0.589000000    -2.719000000
C     1.771000000    -0.543000000     1.995000000
H     1.993000000    -0.859000000     3.011000000
C     0.447000000    -0.326000000     1.577000000
H    -0.329000000    -0.609000000     2.283000000
C     0.237000000     0.164000000     0.303000000
C    -1.168000000     0.429000000    -0.179000000
H    -1.121000000     1.131000000    -1.014000000
H    -1.695000000    -0.466000000    -0.515000000
H    -1.838000000     0.855000000     0.570000000
C     1.260000000     0.398000000    -0.599000000
H     1.146000000     0.808000000    -1.600000000
C     2.569000000     0.110000000    -0.187000000
H     3.407000000     0.165000000    -0.877000000
C     2.827000000    -0.364000000     1.142000000
C     4.213000000    -0.677000000     1.599000000
O     5.090000000    -0.534000000     0.772000000
O     4.477000000    -0.928000000     2.774000000
O     9.094000000    -2.774000000    -1.339000000
H     8.389000000    -3.077000000    -0.767000000
H     8.647000000    -2.464000000    -2.127000000
O     4.774000000    -2.821000000     4.705000000
H     4.746000000    -3.595000000     4.142000000
H     4.526000000    -2.097000000     4.129000000
O     4.534000000    -4.905000000    -2.263000000
H     4.747000000    -4.385000000    -3.038000000
H     4.378000000    -4.257000000    -1.576000000
O     5.192000000    -3.144000000    -0.282000000
H     5.338000000    -2.205000000    -0.169000000
H     6.043000000    -3.543000000    -0.097000000
O     6.813000000     0.437000000     2.993000000
H     5.952000000     0.051000000     2.831000000
H     6.729000000     1.343000000     2.696000000
O     9.652000000     0.620000000    -1.915000000
H    10.266000000    -0.091000000    -1.731000000
H     8.993000000     0.552000000    -1.224000000
O     6.429000000    -5.061000000     5.164000000
H     5.761000000    -5.530000000     4.663000000
H     6.052000000    -4.194000000     5.314000000
O     7.309000000    -4.703000000     0.681000000
H     7.156000000    -3.952000000     1.254000000
H     8.182000000    -5.014000000     0.921000000
O     7.146000000     1.980000000     6.173000000
H     7.956000000     2.208000000     6.630000000
H     7.269000000     2.319000000     5.286000000
O     4.777000000    -5.149000000     3.126000000
H     4.653000000    -4.977000000     2.193000000
H     3.934000000    -5.494000000     3.420000000
O     3.519000000    -7.261000000     0.182000000
H     4.356000000    -7.093000000    -0.249000000
H     3.182000000    -6.391000000     0.398000000
O     7.155000000    -1.664000000    -2.981000000
H     7.470000000    -0.883000000    -3.437000000
H     6.476000000    -2.018000000    -3.554000000
O     3.190000000    -4.639000000     0.778000000
H     2.363000000    -4.159000000     0.753000000
H     3.851000000    -3.992000000     0.531000000
O     9.225000000     0.249000000     1.484000000
H     9.665000000     1.098000000     1.439000000
H     8.371000000     0.442000000     1.873000000
O     7.144000000    -2.308000000     1.888000000
H     7.846000000    -1.659000000     1.833000000
H     6.383000000    -1.814000000     2.192000000
O     3.477000000    -3.838000000     6.882000000
H     4.054000000    -3.369000000     6.279000000
H     3.223000000    -3.182000000     7.531000000
O     7.552000000    -1.499000000     4.930000000
H     7.576000000    -1.012000000     4.106000000
H     6.717000000    -1.252000000     5.330000000
O     7.226000000     0.097000000    -0.652000000
H     7.120000000    -0.625000000    -1.272000000
H     6.612000000    -0.102000000     0.055000000
O     1.134000000    -3.020000000    -0.578000000
H     0.459000000    -3.063000000    -1.256000000
H     1.081000000    -2.124000000    -0.244000000
