218
-1457.90378
C     0.618000000     0.402000000     4.637000000
H     0.014000000    -0.501000000     4.623000000
C    -0.009000000     1.616000000     4.289000000
C     0.706000000     2.814000000     4.502000000
H     0.200000000     3.766000000     4.360000000
C    -1.382000000     1.601000000     3.644000000
O    -2.392000000     0.803000000     4.294000000
H    -1.268000000     1.270000000     2.601000000
O    -1.909000000     2.957000000     3.534000000
C    -2.474000000     3.264000000     2.287000000
C    -1.555000000     4.009000000     1.468000000
H    -0.672000000     4.461000000     1.912000000
C    -1.950000000     4.255000000     0.126000000
O    -1.086000000     4.878000000    -0.719000000
C    -3.150000000     3.755000000    -0.383000000
C    -3.471000000     3.941000000    -1.878000000
H    -4.550000000     3.991000000    -2.036000000
C    -2.860000000     2.974000000    -2.832000000
C    -3.602000000     1.859000000    -3.132000000
H    -4.615000000     1.748000000    -2.755000000
H    -3.127000000     4.946000000    -2.130000000
C    -4.031000000     3.086000000     0.511000000
H    -4.894000000     2.627000000     0.034000000
C    -3.681000000     2.833000000     1.849000000
C    -4.579000000     1.909000000     2.697000000
H    -5.592000000     2.081000000     2.326000000
H    -4.607000000     2.190000000     3.752000000
C    -4.119000000     0.426000000     2.651000000
C    -4.715000000    -0.435000000     1.710000000
H    -5.448000000    -0.101000000     0.980000000
C    -3.160000000    -0.108000000     3.536000000
C    -2.588000000    -1.338000000     3.326000000
H    -1.670000000    -1.653000000     3.814000000
C    -3.207000000    -2.240000000     2.486000000
O    -2.463000000    -3.376000000     2.379000000
C    -1.620000000    -3.564000000     1.293000000
C    -0.499000000    -4.526000000     1.700000000
C     0.073000000    -5.429000000     0.817000000
H    -0.433000000    -5.585000000    -0.133000000
C     0.062000000    -4.493000000     3.014000000
H    -0.470000000    -3.830000000     3.691000000
O    -2.450000000    -4.105000000     0.269000000
H    -1.258000000    -2.587000000     0.941000000
C    -4.223000000    -1.780000000     1.654000000
C    -4.817000000    -2.718000000     0.548000000
H    -5.856000000    -2.408000000     0.416000000
H    -4.895000000    -3.752000000     0.892000000
C    -4.010000000    -2.550000000    -0.717000000
C    -4.371000000    -1.632000000    -1.742000000
H    -5.324000000    -1.141000000    -1.565000000
C    -2.868000000    -3.327000000    -0.793000000
C    -2.064000000    -3.232000000    -1.931000000
H    -1.154000000    -3.820000000    -2.009000000
C    -2.432000000    -2.324000000    -2.907000000
O    -1.591000000    -2.307000000    -3.981000000
C    -0.613000000    -1.211000000    -3.968000000
C     0.785000000    -1.687000000    -4.425000000
C     1.409000000    -2.772000000    -3.774000000
H     0.724000000    -3.406000000    -3.217000000
C     1.543000000    -0.913000000    -5.256000000
H     1.085000000    -0.039000000    -5.713000000
O    -1.145000000    -0.203000000    -4.931000000
H    -0.619000000    -0.834000000    -2.935000000
C    -3.559000000    -1.518000000    -2.866000000
C    -3.898000000    -0.511000000    -3.993000000
H    -4.974000000    -0.343000000    -3.922000000
H    -3.597000000    -0.956000000    -4.943000000
C    -3.100000000     0.768000000    -3.848000000
C    -1.817000000     0.848000000    -4.352000000
C    -1.099000000     2.057000000    -4.083000000
H    -0.086000000     2.125000000    -4.472000000
C    -1.563000000     3.089000000    -3.315000000
O    -0.723000000     4.128000000    -2.956000000
C    -0.211000000     4.094000000    -1.603000000
H    -0.477000000     3.113000000    -1.181000000
C     1.272000000     4.335000000    -1.475000000
C     1.916000000     4.822000000    -0.300000000
H     1.330000000     5.121000000     0.566000000
C     2.162000000     3.898000000    -2.479000000
H     1.712000000     3.501000000    -3.385000000
C     3.553000000     3.897000000    -2.361000000
O     4.391000000     3.319000000    -3.324000000
C     4.107000000     4.423000000    -1.181000000
H     5.172000000     4.430000000    -0.965000000
C     3.287000000     4.893000000    -0.145000000
O     3.814000000     5.353000000     1.037000000
C     3.194000000     5.616000000     2.209000000
C     3.210000000     4.694000000     3.216000000
H     3.625000000     3.711000000     3.009000000
C     2.413000000     6.776000000     2.348000000
H     2.259000000     7.491000000     1.543000000
C     1.713000000     7.039000000     3.476000000
H     1.224000000     7.996000000     3.639000000
C     1.834000000     6.170000000     4.568000000
H     1.330000000     6.405000000     5.502000000
C     2.576000000     5.004000000     4.408000000
O     2.610000000     4.026000000     5.374000000
C     1.926000000     2.852000000     5.148000000
C     2.542000000     1.598000000     5.461000000
H     3.533000000     1.552000000     5.906000000
C     1.922000000     0.377000000     5.193000000
O     2.273000000    -0.735000000     5.977000000
C     1.571000000    -1.868000000     6.096000000
C     1.979000000    -3.037000000     5.388000000
H     2.768000000    -2.893000000     4.655000000
C     0.497000000    -2.000000000     7.007000000
H     0.168000000    -1.207000000     7.673000000
C    -0.040000000    -3.247000000     7.272000000
H    -0.796000000    -3.295000000     8.051000000
C     0.336000000    -4.407000000     6.524000000
H    -0.169000000    -5.366000000     6.595000000
C     1.332000000    -4.267000000     5.550000000
O     1.778000000    -5.141000000     4.659000000
C     1.282000000    -5.106000000     3.413000000
C     1.836000000    -5.891000000     2.433000000
H     2.628000000    -6.584000000     2.706000000
C     1.311000000    -6.010000000     1.136000000
O     1.959000000    -6.813000000     0.257000000
C     1.964000000    -6.648000000    -1.094000000
C     2.562000000    -5.488000000    -1.616000000
H     2.940000000    -4.838000000    -0.831000000
C     1.640000000    -7.696000000    -1.959000000
H     1.151000000    -8.620000000    -1.662000000
C     1.911000000    -7.527000000    -3.289000000
H     1.713000000    -8.417000000    -3.881000000
C     2.519000000    -6.361000000    -3.802000000
H     2.692000000    -6.314000000    -4.874000000
C     2.801000000    -5.297000000    -2.966000000
O     3.418000000    -4.137000000    -3.382000000
C     2.756000000    -3.150000000    -4.079000000
C     3.504000000    -2.345000000    -4.943000000
H     4.513000000    -2.585000000    -5.268000000
C     2.882000000    -1.234000000    -5.529000000
O     3.645000000    -0.392000000    -6.264000000
C     3.605000000     0.941000000    -6.021000000
C     3.063000000     1.737000000    -6.976000000
H     2.751000000     1.234000000    -7.888000000
C     2.897000000     3.103000000    -6.700000000
H     2.476000000     3.774000000    -7.444000000
C     3.306000000     3.636000000    -5.463000000
H     3.102000000     4.681000000    -5.243000000
C     3.942000000     2.805000000    -4.549000000
C     4.009000000     1.461000000    -4.803000000
H     4.301000000     0.796000000    -3.995000000
C     2.329000000     0.519000000     1.363000000
H     2.688000000     0.514000000     2.389000000
C     0.938000000     0.268000000     1.152000000
H     0.297000000     0.100000000     2.014000000
C     0.396000000     0.416000000    -0.110000000
C    -1.145000000     0.221000000    -0.278000000
H    -1.484000000    -0.230000000     0.657000000
H    -1.583000000     1.206000000    -0.453000000
H    -1.387000000    -0.369000000    -1.165000000
C     1.244000000     0.582000000    -1.164000000
H     0.787000000     0.557000000    -2.150000000
C     2.614000000     0.737000000    -1.002000000
H     3.292000000     0.886000000    -1.838000000
C     3.188000000     0.759000000     0.308000000
C     4.679000000     0.859000000     0.557000000
O     5.441000000     1.143000000    -0.337000000
O     5.085000000     0.649000000     1.693000000
O     4.986000000    -3.525000000     3.210000000
H     5.077000000    -4.468000000     3.074000000
H     4.647000000    -3.195000000     2.378000000
O     7.944000000     2.744000000    -4.810000000
H     7.404000000     3.435000000    -4.426000000
H     7.667000000     1.946000000    -4.360000000
O     7.680000000     1.087000000    -2.247000000
H     6.960000000     0.783000000    -1.695000000
H     8.069000000     1.811000000    -1.757000000
O     9.841000000     1.291000000     3.040000000
H    10.570000000     1.692000000     2.566000000
H     9.205000000     1.999000000     3.145000000
O     7.771000000     3.285000000     3.703000000
H     7.662000000     3.609000000     2.809000000
H     6.996000000     2.747000000     3.859000000
O     5.589000000    -1.216000000    -1.731000000
H     5.417000000    -0.353000000    -1.354000000
H     6.000000000    -1.031000000    -2.575000000
O     6.554000000     4.872000000    -3.755000000
H     5.900000000     4.200000000    -3.947000000
H     6.116000000     5.697000000    -3.962000000
O     6.608000000     5.999000000     2.283000000
H     6.433000000     5.249000000     1.715000000
H     6.210000000     5.762000000     3.121000000
O     8.981000000     3.283000000    -0.820000000
H     9.568000000     3.260000000    -0.064000000
H     8.924000000     4.210000000    -1.051000000
O     4.884000000    -2.648000000     0.544000000
H     5.244000000    -3.493000000     0.273000000
H     5.102000000    -2.053000000    -0.173000000
O    10.357000000    -1.578000000    -1.634000000
H    10.526000000    -0.636000000    -1.646000000
H     9.682000000    -1.692000000    -0.966000000
O     5.599000000     1.823000000     3.999000000
H     5.369000000     1.393000000     3.175000000
H     5.356000000     1.191000000     4.675000000
O     7.867000000    -0.969000000     2.333000000
H     8.259000000    -0.289000000     2.881000000
H     7.041000000    -0.589000000     2.034000000
O    10.899000000     1.290000000    -2.040000000
H    11.689000000     1.826000000    -1.978000000
H    10.182000000     1.896000000    -1.854000000
O     8.036000000    -2.354000000    -0.151000000
H     7.228000000    -2.604000000    -0.600000000
H     7.745000000    -1.817000000     0.586000000
O     4.748000000    -0.938000000     4.079000000
H     4.608000000    -0.397000000     3.303000000
H     5.112000000    -1.756000000     3.738000000
O     6.705000000     3.303000000     1.067000000
H     7.260000000     3.233000000     0.290000000
H     6.074000000     2.588000000     0.976000000
O     2.246000000    -2.585000000     0.981000000
H     1.859000000    -1.867000000     0.479000000
H     3.185000000    -2.398000000     0.981000000
O     7.291000000     2.439000000     6.534000000
H     7.929000000     3.057000000     6.890000000
H     7.082000000     2.785000000     5.666000000
