218
-1464.53223
C    -0.656000000     0.718000000     4.799000000
H    -1.369000000    -0.101000000     4.757000000
C    -0.817000000     1.798000000     3.931000000
C     0.141000000     2.836000000     3.960000000
H     0.109000000     3.651000000     3.241000000
C    -1.987000000     1.899000000     2.973000000
O    -3.199000000     1.285000000     3.563000000
H    -1.646000000     1.255000000     2.149000000
O    -2.252000000     3.201000000     2.591000000
C    -2.378000000     3.486000000     1.200000000
C    -1.308000000     4.039000000     0.533000000
H    -0.437000000     4.430000000     1.052000000
C    -1.369000000     4.218000000    -0.836000000
O    -0.359000000     4.725000000    -1.463000000
C    -2.546000000     3.800000000    -1.584000000
C    -2.571000000     4.017000000    -3.092000000
H    -3.598000000     4.086000000    -3.457000000
C    -1.919000000     2.836000000    -3.778000000
C    -2.672000000     1.705000000    -4.069000000
H    -3.746000000     1.700000000    -3.903000000
H    -2.032000000     4.927000000    -3.365000000
C    -3.640000000     3.239000000    -0.870000000
H    -4.490000000     2.725000000    -1.312000000
C    -3.569000000     3.124000000     0.538000000
C    -4.746000000     2.466000000     1.292000000
H    -5.589000000     2.654000000     0.624000000
H    -4.996000000     2.867000000     2.277000000
C    -4.629000000     0.951000000     1.523000000
C    -5.060000000     0.079000000     0.544000000
H    -5.333000000     0.498000000    -0.421000000
C    -3.957000000     0.460000000     2.649000000
C    -3.843000000    -0.911000000     2.800000000
H    -3.310000000    -1.272000000     3.676000000
C    -4.163000000    -1.753000000     1.749000000
O    -3.839000000    -3.082000000     1.803000000
C    -2.599000000    -3.436000000     1.130000000
C    -1.642000000    -4.288000000     2.099000000
C    -0.476000000    -4.740000000     1.531000000
H    -0.359000000    -4.668000000     0.453000000
C    -1.802000000    -4.302000000     3.433000000
H    -2.676000000    -3.904000000     3.944000000
O    -2.855000000    -4.055000000    -0.104000000
H    -1.982000000    -2.569000000     0.851000000
C    -4.756000000    -1.289000000     0.570000000
C    -5.095000000    -2.287000000    -0.523000000
H    -6.037000000    -1.953000000    -0.965000000
H    -5.430000000    -3.270000000    -0.187000000
C    -3.956000000    -2.388000000    -1.500000000
C    -3.907000000    -1.552000000    -2.611000000
H    -4.724000000    -0.846000000    -2.730000000
C    -2.936000000    -3.295000000    -1.292000000
C    -1.955000000    -3.397000000    -2.294000000
H    -1.187000000    -4.147000000    -2.123000000
C    -1.972000000    -2.600000000    -3.412000000
O    -0.921000000    -2.688000000    -4.282000000
C     0.150000000    -1.756000000    -4.110000000
C     1.567000000    -2.348000000    -4.065000000
C     1.989000000    -3.408000000    -3.228000000
H     1.230000000    -3.974000000    -2.693000000
C     2.586000000    -1.553000000    -4.711000000
H     2.365000000    -0.672000000    -5.309000000
O    -0.016000000    -0.692000000    -5.054000000
H     0.066000000    -1.265000000    -3.130000000
C    -2.937000000    -1.601000000    -3.545000000
C    -2.987000000    -0.726000000    -4.804000000
H    -3.984000000    -0.523000000    -5.199000000
H    -2.570000000    -1.323000000    -5.619000000
C    -2.099000000     0.515000000    -4.588000000
C    -0.689000000     0.494000000    -4.755000000
C     0.086000000     1.587000000    -4.426000000
H     1.170000000     1.557000000    -4.502000000
C    -0.527000000     2.726000000    -3.929000000
O     0.301000000     3.769000000    -3.465000000
C     0.493000000     3.735000000    -2.091000000
H     0.181000000     2.758000000    -1.692000000
C     1.975000000     4.062000000    -1.732000000
C     2.354000000     4.815000000    -0.625000000
H     1.595000000     5.329000000    -0.041000000
C     3.045000000     3.340000000    -2.373000000
H     2.785000000     2.770000000    -3.261000000
C     4.386000000     3.506000000    -2.043000000
O     5.373000000     2.908000000    -2.754000000
C     4.680000000     4.306000000    -0.959000000
H     5.707000000     4.322000000    -0.604000000
C     3.689000000     4.993000000    -0.274000000
O     4.053000000     5.673000000     0.839000000
C     3.334000000     5.691000000     2.023000000
C     3.257000000     4.698000000     2.949000000
H     3.732000000     3.730000000     2.807000000
C     2.696000000     6.938000000     2.275000000
H     2.771000000     7.759000000     1.567000000
C     1.707000000     7.028000000     3.272000000
H     1.016000000     7.867000000     3.298000000
C     1.678000000     5.936000000     4.235000000
H     1.141000000     5.998000000     5.178000000
C     2.365000000     4.770000000     4.026000000
O     2.205000000     3.671000000     4.875000000
C     1.208000000     2.740000000     4.814000000
C     1.336000000     1.671000000     5.661000000
H     2.142000000     1.693000000     6.390000000
C     0.456000000     0.654000000     5.640000000
O     0.572000000    -0.396000000     6.557000000
C    -0.330000000    -1.404000000     6.804000000
C    -0.174000000    -2.605000000     6.102000000
H     0.662000000    -2.683000000     5.411000000
C    -1.291000000    -1.265000000     7.807000000
H    -1.484000000    -0.348000000     8.359000000
C    -2.251000000    -2.327000000     7.943000000
H    -3.019000000    -2.265000000     8.709000000
C    -2.180000000    -3.460000000     7.130000000
H    -2.833000000    -4.323000000     7.232000000
C    -1.137000000    -3.566000000     6.270000000
O    -1.008000000    -4.808000000     5.573000000
C    -0.886000000    -4.843000000     4.240000000
C     0.268000000    -5.400000000     3.799000000
H     1.034000000    -5.802000000     4.457000000
C     0.500000000    -5.269000000     2.395000000
O     1.641000000    -5.760000000     1.962000000
C     1.907000000    -6.120000000     0.681000000
C     2.591000000    -5.262000000    -0.188000000
H     2.805000000    -4.211000000    -0.010000000
C     1.406000000    -7.316000000     0.156000000
H     0.724000000    -7.893000000     0.776000000
C     1.740000000    -7.704000000    -1.164000000
H     1.355000000    -8.613000000    -1.619000000
C     2.442000000    -6.873000000    -1.964000000
H     2.661000000    -7.109000000    -3.002000000
C     2.955000000    -5.658000000    -1.520000000
O     3.719000000    -4.924000000    -2.322000000
C     3.335000000    -3.840000000    -3.094000000
C     4.298000000    -2.963000000    -3.712000000
H     5.344000000    -3.115000000    -3.458000000
C     3.899000000    -1.872000000    -4.493000000
O     4.904000000    -1.220000000    -5.147000000
C     5.069000000     0.163000000    -5.077000000
C     5.292000000     0.823000000    -6.316000000
H     5.424000000     0.286000000    -7.253000000
C     5.620000000     2.197000000    -6.259000000
H     5.848000000     2.608000000    -7.239000000
C     5.522000000     2.877000000    -5.085000000
H     5.545000000     3.964000000    -5.090000000
C     5.246000000     2.235000000    -3.876000000
C     5.136000000     0.825000000    -3.854000000
H     5.106000000     0.246000000    -2.934000000
C     1.567000000    -0.900000000     1.991000000
H     1.608000000    -1.247000000     3.020000000
C     0.344000000    -0.766000000     1.347000000
H    -0.499000000    -1.080000000     1.957000000
C     0.225000000    -0.330000000     0.023000000
C    -1.132000000    -0.127000000    -0.652000000
H    -1.993000000    -0.171000000     0.018000000
H    -1.158000000     0.842000000    -1.154000000
H    -1.276000000    -0.915000000    -1.394000000
C     1.421000000     0.033000000    -0.644000000
H     1.495000000     0.448000000    -1.646000000
C     2.691000000    -0.093000000    -0.021000000
H     3.624000000     0.087000000    -0.548000000
C     2.766000000    -0.514000000     1.328000000
C     4.055000000    -0.742000000     2.070000000
O     5.084000000    -0.447000000     1.515000000
O     4.169000000    -1.042000000     3.233000000
O     4.463000000    -3.827000000     3.248000000
H     5.375000000    -3.803000000     2.957000000
H     4.149000000    -2.932000000     3.127000000
O     7.557000000    -1.103000000     2.119000000
H     7.922000000    -0.473000000     2.741000000
H     6.627000000    -0.881000000     2.072000000
O     4.416000000     0.415000000     7.575000000
H     3.593000000     0.832000000     7.833000000
H     4.191000000    -0.101000000     6.801000000
O     6.494000000     3.759000000     3.434000000
H     6.753000000     3.186000000     2.712000000
H     6.921000000     3.382000000     4.203000000
O     6.991000000    -3.063000000     6.441000000
H     7.056000000    -2.150000000     6.720000000
H     6.057000000    -3.200000000     6.282000000
O     3.679000000    -3.930000000     6.616000000
H     3.582000000    -4.614000000     7.278000000
H     3.886000000    -4.404000000     5.810000000
O     9.578000000    -0.048000000    -1.869000000
H     8.981000000     0.372000000    -1.250000000
H     9.034000000    -0.682000000    -2.334000000
O     7.561000000    -1.759000000    -2.961000000
H     7.322000000    -2.661000000    -2.748000000
H     7.518000000    -1.295000000    -2.124000000
O     6.982000000    -3.767000000     2.488000000
H     7.218000000    -2.895000000     2.171000000
H     7.747000000    -4.056000000     2.985000000
O     5.191000000     3.835000000     6.111000000
H     4.522000000     3.286000000     5.703000000
H     5.897000000     3.872000000     5.466000000
O     3.677000000    -6.230000000     3.905000000
H     2.828000000    -6.218000000     3.463000000
H     4.099000000    -5.414000000     3.638000000
O     6.918000000    -0.688000000    -0.579000000
H     7.504000000    -0.689000000     0.178000000
H     6.038000000    -0.675000000    -0.201000000
O     6.122000000     0.578000000     4.106000000
H     5.449000000    -0.061000000     3.872000000
H     6.354000000     0.997000000     3.277000000
O     7.963000000     2.294000000     5.346000000
H     8.192000000     2.495000000     6.253000000
H     7.552000000     1.431000000     5.387000000
O     6.818000000    -0.374000000     6.740000000
H     6.812000000    -0.014000000     5.853000000
H     6.046000000     0.007000000     7.159000000
O     7.235000000     1.986000000     1.495000000
H     7.768000000     2.100000000     0.708000000
H     6.364000000     2.291000000     1.240000000
O     3.540000000    -1.370000000     5.909000000
H     3.524000000    -2.314000000     6.065000000
H     3.449000000    -1.282000000     4.960000000
O     9.484000000    -2.737000000     4.950000000
H     9.266000000    -3.584000000     4.562000000
H     8.688000000    -2.473000000     5.411000000
O     6.371000000    -6.837000000     2.633000000
H     6.268000000    -5.889000000     2.553000000
H     5.893000000    -7.064000000     3.431000000
