218
-1465.47195
C    -0.732000000     1.844000000     4.690000000
H    -1.350000000     1.019000000     4.346000000
C    -0.845000000     3.023000000     3.966000000
C     0.157000000     3.982000000     4.275000000
H     0.231000000     4.829000000     3.597000000
C    -1.628000000     3.035000000     2.659000000
O    -2.961000000     2.473000000     2.911000000
H    -1.042000000     2.360000000     2.017000000
O    -1.667000000     4.342000000     2.034000000
C    -1.593000000     4.396000000     0.646000000
C    -0.335000000     4.710000000     0.107000000
H     0.399000000     5.062000000     0.827000000
C    -0.150000000     4.608000000    -1.277000000
O     1.151000000     4.604000000    -1.680000000
C    -1.205000000     4.407000000    -2.128000000
C    -0.972000000     4.265000000    -3.640000000
H    -1.842000000     4.592000000    -4.213000000
C    -0.644000000     2.835000000    -4.023000000
C    -1.657000000     1.911000000    -4.446000000
H    -2.710000000     2.173000000    -4.397000000
H    -0.169000000     4.978000000    -3.834000000
C    -2.456000000     4.045000000    -1.579000000
H    -3.301000000     3.834000000    -2.229000000
C    -2.655000000     3.962000000    -0.195000000
C    -4.055000000     3.695000000     0.408000000
H    -4.807000000     3.951000000    -0.341000000
H    -4.254000000     4.428000000     1.193000000
C    -4.146000000     2.244000000     0.747000000
C    -4.882000000     1.337000000    -0.148000000
H    -5.347000000     1.738000000    -1.045000000
C    -3.650000000     1.746000000     1.908000000
C    -3.881000000     0.379000000     2.217000000
H    -3.469000000     0.010000000     3.153000000
C    -4.499000000    -0.475000000     1.349000000
O    -4.408000000    -1.823000000     1.614000000
C    -3.249000000    -2.520000000     1.010000000
C    -2.511000000    -3.484000000     1.976000000
C    -1.886000000    -4.633000000     1.441000000
H    -1.955000000    -4.822000000     0.373000000
C    -2.510000000    -3.225000000     3.328000000
H    -3.074000000    -2.340000000     3.610000000
O    -3.879000000    -3.185000000    -0.134000000
H    -2.428000000    -1.842000000     0.731000000
C    -5.067000000    -0.028000000     0.164000000
C    -5.550000000    -0.995000000    -0.894000000
H    -6.307000000    -0.502000000    -1.507000000
H    -6.042000000    -1.875000000    -0.473000000
C    -4.446000000    -1.487000000    -1.782000000
C    -3.984000000    -0.830000000    -2.954000000
H    -4.466000000     0.068000000    -3.330000000
C    -3.673000000    -2.615000000    -1.387000000
C    -2.549000000    -3.072000000    -2.061000000
H    -1.901000000    -3.811000000    -1.597000000
C    -2.204000000    -2.431000000    -3.256000000
O    -1.035000000    -2.834000000    -3.876000000
C     0.164000000    -2.091000000    -3.705000000
C     1.378000000    -2.987000000    -3.628000000
C     1.219000000    -4.306000000    -3.125000000
H     0.279000000    -4.850000000    -3.182000000
C     2.707000000    -2.564000000    -3.778000000
H     3.064000000    -1.646000000    -4.239000000
O     0.285000000    -1.160000000    -4.765000000
H     0.137000000    -1.463000000    -2.802000000
C    -2.878000000    -1.323000000    -3.702000000
C    -2.490000000    -0.438000000    -4.882000000
H    -3.379000000     0.110000000    -5.201000000
H    -2.229000000    -1.122000000    -5.693000000
C    -1.389000000     0.615000000    -4.615000000
C    -0.080000000     0.178000000    -4.511000000
C     0.960000000     0.962000000    -4.004000000
H     1.968000000     0.564000000    -4.094000000
C     0.676000000     2.348000000    -3.880000000
O     1.673000000     3.138000000    -3.434000000
C     1.719000000     3.349000000    -2.000000000
H     1.048000000     2.577000000    -1.597000000
C     3.152000000     3.213000000    -1.456000000
C     3.444000000     3.451000000    -0.106000000
H     2.702000000     3.929000000     0.529000000
C     4.042000000     2.485000000    -2.251000000
H     3.861000000     2.175000000    -3.277000000
C     5.317000000     2.224000000    -1.732000000
O     6.310000000     1.548000000    -2.372000000
C     5.679000000     2.649000000    -0.438000000
H     6.692000000     2.384000000    -0.146000000
C     4.696000000     3.173000000     0.476000000
O     4.951000000     3.598000000     1.793000000
C     4.090000000     4.509000000     2.497000000
C     3.502000000     4.211000000     3.676000000
H     3.601000000     3.184000000     4.020000000
C     4.006000000     5.778000000     2.012000000
H     4.647000000     6.088000000     1.189000000
C     3.270000000     6.737000000     2.769000000
H     3.353000000     7.782000000     2.482000000
C     2.593000000     6.368000000     3.928000000
H     2.002000000     7.079000000     4.499000000
C     2.672000000     5.106000000     4.373000000
O     2.014000000     4.723000000     5.558000000
C     1.048000000     3.746000000     5.361000000
C     1.121000000     2.604000000     6.087000000
H     1.764000000     2.506000000     6.959000000
C     0.202000000     1.645000000     5.718000000
O     0.098000000     0.433000000     6.369000000
C    -0.956000000    -0.464000000     6.428000000
C    -0.857000000    -1.757000000     5.882000000
H     0.035000000    -1.966000000     5.298000000
C    -2.158000000    -0.027000000     7.016000000
H    -2.278000000     0.969000000     7.435000000
C    -3.132000000    -1.011000000     7.289000000
H    -4.046000000    -0.664000000     7.763000000
C    -2.995000000    -2.304000000     6.794000000
H    -3.773000000    -3.027000000     7.024000000
C    -1.832000000    -2.647000000     6.088000000
O    -1.757000000    -3.902000000     5.571000000
C    -1.793000000    -4.111000000     4.189000000
C    -1.206000000    -5.252000000     3.679000000
H    -0.725000000    -5.932000000     4.377000000
C    -1.202000000    -5.473000000     2.269000000
O    -0.694000000    -6.661000000     1.855000000
C    -0.317000000    -6.981000000     0.538000000
C     0.633000000    -6.291000000    -0.199000000
H     1.153000000    -5.421000000     0.195000000
C    -0.999000000    -8.080000000    -0.012000000
H    -1.750000000    -8.568000000     0.604000000
C    -0.793000000    -8.492000000    -1.330000000
H    -1.436000000    -9.199000000    -1.847000000
C     0.234000000    -7.828000000    -2.084000000
H     0.337000000    -8.043000000    -3.144000000
C     0.942000000    -6.819000000    -1.464000000
O     2.033000000    -6.269000000    -2.150000000
C     2.229000000    -4.975000000    -2.546000000
C     3.513000000    -4.522000000    -2.603000000
H     4.319000000    -5.128000000    -2.196000000
C     3.740000000    -3.366000000    -3.305000000
O     5.033000000    -2.977000000    -3.397000000
C     5.426000000    -1.746000000    -3.783000000
C     5.621000000    -1.424000000    -5.145000000
H     5.402000000    -2.204000000    -5.871000000
C     5.970000000    -0.167000000    -5.616000000
H     6.115000000     0.045000000    -6.673000000
C     6.248000000     0.836000000    -4.641000000
H     6.709000000     1.764000000    -4.969000000
C     6.094000000     0.514000000    -3.242000000
C     5.733000000    -0.768000000    -2.822000000
H     5.659000000    -0.952000000    -1.753000000
C     2.005000000     0.075000000     2.485000000
H     2.044000000     0.165000000     3.568000000
C     0.750000000     0.179000000     1.972000000
H    -0.153000000     0.266000000     2.570000000
C     0.499000000    -0.090000000     0.583000000
C    -0.828000000     0.218000000    -0.061000000
H    -0.788000000     1.062000000    -0.754000000
H    -1.129000000    -0.639000000    -0.668000000
H    -1.575000000     0.442000000     0.703000000
C     1.575000000    -0.257000000    -0.249000000
H     1.503000000    -0.280000000    -1.334000000
C     2.823000000    -0.452000000     0.264000000
H     3.675000000    -0.695000000    -0.366000000
C     3.062000000    -0.350000000     1.645000000
C     4.424000000    -0.622000000     2.156000000
O     5.321000000    -0.935000000     1.378000000
O     4.679000000    -0.541000000     3.370000000
O     5.772000000    -2.904000000     7.902000000
H     5.304000000    -3.173000000     8.693000000
H     5.080000000    -2.703000000     7.272000000
O     5.689000000    -5.370000000     3.061000000
H     4.780000000    -5.220000000     2.802000000
H     6.157000000    -4.594000000     2.754000000
O     4.904000000    -3.484000000     0.479000000
H     5.061000000    -2.564000000     0.690000000
H     5.758000000    -3.903000000     0.587000000
O     1.829000000    -3.662000000     7.066000000
H     1.532000000    -3.158000000     7.824000000
H     2.357000000    -3.046000000     6.560000000
O     2.235000000    -3.414000000     1.729000000
H     2.213000000    -2.513000000     2.054000000
H     3.031000000    -3.458000000     1.200000000
O     6.041000000     1.713000000     3.926000000
H     5.426000000     0.989000000     4.037000000
H     5.634000000     2.275000000     3.267000000
O     3.551000000     0.008000000     7.407000000
H     4.463000000     0.248000000     7.571000000
H     3.152000000    -0.024000000     8.277000000
O     7.314000000     5.191000000     2.314000000
H     6.463000000     4.761000000     2.238000000
H     7.138000000     5.985000000     2.818000000
O     7.005000000    -2.919000000     2.571000000
H     7.770000000    -2.445000000     2.896000000
H     6.453000000    -2.242000000     2.179000000
O     7.415000000    -0.156000000     0.131000000
H     7.611000000    -1.055000000    -0.132000000
H     6.543000000    -0.206000000     0.522000000
O     8.455000000     1.061000000     5.324000000
H     7.669000000     1.495000000     4.992000000
H     8.277000000     0.127000000     5.215000000
O     4.848000000     2.965000000     6.394000000
H     5.514000000     2.967000000     5.706000000
H     5.058000000     2.198000000     6.927000000
O     6.640000000    -1.018000000     5.295000000
H     6.039000000    -1.016000000     4.550000000
H     6.221000000    -0.450000000     5.942000000
O     9.056000000     0.519000000    -1.993000000
H     9.395000000     1.312000000    -1.578000000
H     8.306000000     0.268000000    -1.454000000
O     9.057000000    -1.426000000     3.642000000
H     9.393000000    -1.559000000     4.528000000
H     9.787000000    -1.662000000     3.070000000
O     9.202000000     1.732000000     2.466000000
H     8.451000000     1.332000000     2.026000000
H     9.384000000     1.152000000     3.205000000
O     7.677000000    -3.856000000     4.976000000
H     7.500000000    -3.846000000     4.035000000
H     7.482000000    -2.965000000     5.265000000
O     3.385000000    -1.732000000     5.294000000
H     3.164000000    -1.011000000     5.883000000
H     3.920000000    -1.328000000     4.611000000
O     2.215000000    -5.423000000     3.586000000
H     2.163000000    -4.675000000     2.991000000
H     2.163000000    -5.038000000     4.461000000
