218
-1405.46367
C    -0.439000000     2.926000000     4.345000000
H    -1.324000000     2.387000000     4.675000000
C    -0.566000000     3.582000000     3.091000000
C     0.428000000     4.465000000     2.764000000
H     0.548000000     4.965000000     1.806000000
C    -1.807000000     3.339000000     2.225000000
O    -2.970000000     2.951000000     2.900000000
H    -1.644000000     2.458000000     1.587000000
O    -2.080000000     4.386000000     1.273000000
C    -2.341000000     4.129000000    -0.055000000
C    -1.288000000     4.400000000    -0.931000000
H    -0.372000000     4.780000000    -0.487000000
C    -1.309000000     4.076000000    -2.335000000
O    -0.130000000     4.053000000    -3.044000000
C    -2.467000000     3.474000000    -2.822000000
C    -2.554000000     2.903000000    -4.232000000
H    -3.604000000     2.896000000    -4.535000000
C    -1.972000000     1.506000000    -4.405000000
C    -2.817000000     0.380000000    -4.454000000
H    -3.894000000     0.518000000    -4.391000000
H    -1.973000000     3.665000000    -4.756000000
C    -3.549000000     3.192000000    -1.967000000
H    -4.430000000     2.620000000    -2.247000000
C    -3.507000000     3.601000000    -0.576000000
C    -4.672000000     3.274000000     0.357000000
H    -5.632000000     3.155000000    -0.149000000
H    -4.736000000     4.142000000     1.016000000
C    -4.490000000     1.962000000     1.246000000
C    -4.983000000     0.805000000     0.678000000
H    -5.514000000     0.956000000    -0.258000000
C    -3.848000000     1.960000000     2.517000000
C    -3.618000000     0.708000000     3.076000000
H    -2.970000000     0.588000000     3.940000000
C    -4.000000000    -0.467000000     2.480000000
O    -3.436000000    -1.642000000     2.979000000
C    -2.428000000    -2.353000000     2.243000000
C    -1.250000000    -2.906000000     3.111000000
C    -0.625000000    -4.060000000     2.756000000
H    -0.972000000    -4.637000000     1.903000000
C    -0.805000000    -2.209000000     4.256000000
H    -1.327000000    -1.306000000     4.564000000
O    -2.943000000    -3.444000000     1.377000000
H    -1.819000000    -1.704000000     1.596000000
C    -4.719000000    -0.458000000     1.246000000
C    -5.197000000    -1.682000000     0.508000000
H    -6.036000000    -1.439000000    -0.147000000
H    -5.505000000    -2.475000000     1.193000000
C    -4.185000000    -2.265000000    -0.372000000
C    -4.156000000    -1.785000000    -1.626000000
H    -4.828000000    -1.041000000    -2.047000000
C    -3.206000000    -3.229000000     0.047000000
C    -2.354000000    -3.770000000    -0.861000000
H    -1.710000000    -4.562000000    -0.488000000
C    -2.383000000    -3.440000000    -2.186000000
O    -1.356000000    -3.977000000    -2.936000000
C    -0.291000000    -3.215000000    -3.204000000
C     1.107000000    -3.993000000    -3.121000000
C     1.253000000    -5.096000000    -2.364000000
H     0.412000000    -5.421000000    -1.757000000
C     2.274000000    -3.575000000    -3.833000000
H     2.132000000    -2.782000000    -4.563000000
O    -0.395000000    -2.495000000    -4.414000000
H    -0.232000000    -2.404000000    -2.463000000
C    -3.259000000    -2.413000000    -2.571000000
C    -3.296000000    -2.033000000    -4.108000000
H    -4.320000000    -1.759000000    -4.372000000
H    -3.120000000    -2.876000000    -4.779000000
C    -2.326000000    -0.943000000    -4.370000000
C    -0.953000000    -1.217000000    -4.455000000
C    -0.160000000    -0.079000000    -4.508000000
H     0.894000000    -0.319000000    -4.625000000
C    -0.583000000     1.242000000    -4.501000000
O     0.365000000     2.245000000    -4.387000000
C     0.569000000     2.835000000    -3.140000000
H     0.195000000     2.038000000    -2.481000000
C     2.050000000     2.947000000    -2.773000000
C     2.486000000     4.074000000    -2.076000000
H     1.735000000     4.814000000    -1.810000000
C     2.923000000     1.898000000    -3.023000000
H     2.649000000     1.011000000    -3.589000000
C     4.195000000     1.990000000    -2.528000000
O     4.934000000     0.813000000    -2.443000000
C     4.592000000     3.139000000    -1.868000000
H     5.521000000     3.204000000    -1.307000000
C     3.745000000     4.207000000    -1.648000000
O     4.207000000     5.311000000    -1.010000000
C     3.727000000     6.013000000     0.068000000
C     3.350000000     5.404000000     1.235000000
H     3.468000000     4.327000000     1.323000000
C     3.482000000     7.345000000    -0.160000000
H     3.679000000     7.785000000    -1.134000000
C     2.890000000     8.097000000     0.872000000
H     2.640000000     9.129000000     0.642000000
C     2.627000000     7.567000000     2.086000000
H     2.234000000     8.171000000     2.900000000
C     2.807000000     6.213000000     2.265000000
O     2.409000000     5.697000000     3.486000000
C     1.494000000     4.653000000     3.685000000
C     1.540000000     4.031000000     4.915000000
H     2.353000000     4.329000000     5.571000000
C     0.632000000     3.076000000     5.265000000
O     0.499000000     2.698000000     6.562000000
C     0.026000000     1.418000000     6.790000000
C     0.642000000     0.246000000     6.356000000
H     1.604000000     0.304000000     5.853000000
C    -1.218000000     1.337000000     7.435000000
H    -1.646000000     2.223000000     7.897000000
C    -1.736000000     0.062000000     7.710000000
H    -2.625000000    -0.045000000     8.326000000
C    -1.170000000    -1.104000000     7.213000000
H    -1.656000000    -2.076000000     7.205000000
C     0.049000000    -0.973000000     6.577000000
O     0.705000000    -2.054000000     6.129000000
C     0.214000000    -2.766000000     5.009000000
C     0.827000000    -3.960000000     4.652000000
H     1.751000000    -4.317000000     5.101000000
C     0.442000000    -4.590000000     3.471000000
O     1.188000000    -5.642000000     3.054000000
C     1.088000000    -6.374000000     1.929000000
C     2.045000000    -6.317000000     0.919000000
H     2.922000000    -5.676000000     0.971000000
C    -0.012000000    -7.193000000     1.700000000
H    -0.864000000    -7.237000000     2.374000000
C    -0.175000000    -7.945000000     0.543000000
H    -1.051000000    -8.582000000     0.459000000
C     0.714000000    -7.835000000    -0.487000000
H     0.595000000    -8.384000000    -1.417000000
C     1.797000000    -6.973000000    -0.278000000
O     2.717000000    -6.742000000    -1.305000000
C     2.491000000    -5.733000000    -2.241000000
C     3.606000000    -5.313000000    -2.924000000
H     4.559000000    -5.821000000    -2.803000000
C     3.517000000    -4.242000000    -3.750000000
O     4.639000000    -3.753000000    -4.404000000
C     5.039000000    -2.418000000    -4.300000000
C     5.932000000    -1.961000000    -5.286000000
H     6.333000000    -2.562000000    -6.098000000
C     6.346000000    -0.653000000    -5.317000000
H     7.067000000    -0.351000000    -6.072000000
C     5.909000000     0.254000000    -4.361000000
H     6.236000000     1.290000000    -4.379000000
C     5.010000000    -0.135000000    -3.412000000
C     4.668000000    -1.508000000    -3.331000000
H     4.081000000    -1.873000000    -2.492000000
C     1.288000000     0.422000000     2.074000000
H     1.197000000     0.796000000     3.090000000
C     0.060000000     0.280000000     1.391000000
H    -0.870000000     0.507000000     1.906000000
C     0.064000000    -0.026000000    -0.010000000
C    -1.257000000    -0.050000000    -0.726000000
H    -2.042000000    -0.159000000     0.025000000
H    -1.402000000     0.893000000    -1.257000000
H    -1.432000000    -0.881000000    -1.412000000
C     1.245000000    -0.150000000    -0.685000000
H     1.175000000    -0.125000000    -1.770000000
C     2.418000000    -0.085000000     0.025000000
H     3.329000000    -0.115000000    -0.567000000
C     2.456000000     0.165000000     1.409000000
C     3.811000000     0.271000000     2.086000000
O     4.817000000    -0.017000000     1.417000000
O     3.936000000     0.875000000     3.140000000
O     5.574000000    -1.900000000     7.690000000
H     4.709000000    -2.284000000     7.548000000
H     5.486000000    -1.408000000     8.506000000
O     6.195000000    -2.022000000     2.678000000
H     5.456000000    -2.603000000     2.860000000
H     5.794000000    -1.228000000     2.324000000
O     9.013000000    -1.756000000     2.995000000
H     8.063000000    -1.838000000     3.079000000
H     9.205000000    -0.870000000     3.302000000
O     3.298000000    -3.171000000     7.062000000
H     3.089000000    -4.102000000     6.995000000
H     2.506000000    -2.773000000     7.423000000
O     3.978000000    -2.649000000     4.439000000
H     3.684000000    -2.804000000     5.336000000
H     3.952000000    -1.698000000     4.339000000
O     7.998000000     2.482000000     5.280000000
H     7.881000000     1.741000000     5.874000000
H     7.226000000     3.028000000     5.423000000
O     4.448000000     3.358000000     3.317000000
H     4.175000000     3.552000000     4.214000000
H     4.224000000     2.436000000     3.192000000
O     4.045000000     2.649000000     7.399000000
H     4.551000000     2.029000000     6.874000000
H     3.692000000     2.123000000     8.116000000
O     5.644000000    -2.870000000    -0.057000000
H     4.867000000    -2.572000000     0.417000000
H     6.185000000    -2.086000000    -0.146000000
O     6.456000000     5.311000000     2.426000000
H     5.856000000     4.576000000     2.553000000
H     7.108000000     5.211000000     3.119000000
O     6.785000000    -2.866000000     5.613000000
H     6.259000000    -2.536000000     6.341000000
H     6.231000000    -2.743000000     4.842000000
O     9.009000000    -2.316000000    -0.659000000
H     8.572000000    -2.873000000    -1.304000000
H     8.430000000    -1.559000000    -0.565000000
O     6.551000000     1.884000000     1.670000000
H     6.025000000     2.595000000     2.036000000
H     5.977000000     1.119000000     1.707000000
O     6.039000000    -5.217000000     1.392000000
H     5.411000000    -5.051000000     2.096000000
H     5.899000000    -4.500000000     0.773000000
O     6.540000000    -0.330000000    -0.391000000
H     5.906000000    -0.322000000     0.326000000
H     6.291000000     0.413000000    -0.940000000
O     8.843000000     1.224000000     2.862000000
H     8.090000000     1.520000000     2.352000000
H     8.636000000     1.474000000     3.763000000
O     4.381000000    -5.408000000     3.553000000
H     4.330000000    -4.453000000     3.564000000
H     4.513000000    -5.652000000     4.468000000
O     5.312000000     0.916000000     5.951000000
H     6.124000000     0.423000000     6.069000000
H     5.010000000     0.674000000     5.075000000
O     3.378000000    -2.809000000     1.613000000
H     2.882000000    -3.603000000     1.811000000
H     2.716000000    -2.119000000     1.567000000
