218
-1461.60850
C    -0.388000000     3.116000000     4.274000000
H    -1.261000000     2.595000000     4.661000000
C    -0.183000000     3.521000000     2.936000000
C     1.023000000     3.965000000     2.480000000
H     1.098000000     4.056000000     1.399000000
C    -1.363000000     3.251000000     1.963000000
O    -2.614000000     2.932000000     2.602000000
H    -1.100000000     2.384000000     1.339000000
O    -1.579000000     4.492000000     1.187000000
C    -1.871000000     4.242000000    -0.170000000
C    -0.838000000     4.375000000    -1.112000000
H     0.146000000     4.781000000    -0.889000000
C    -0.971000000     3.966000000    -2.413000000
O     0.217000000     4.046000000    -3.154000000
C    -2.155000000     3.495000000    -2.904000000
C    -2.233000000     2.974000000    -4.312000000
H    -3.287000000     2.988000000    -4.597000000
C    -1.716000000     1.524000000    -4.291000000
C    -2.603000000     0.486000000    -4.142000000
H    -3.660000000     0.706000000    -4.010000000
H    -1.663000000     3.620000000    -4.983000000
C    -3.277000000     3.404000000    -2.064000000
H    -4.242000000     3.006000000    -2.365000000
C    -3.113000000     3.689000000    -0.676000000
C    -4.309000000     3.504000000     0.243000000
H    -5.244000000     3.737000000    -0.271000000
H    -4.364000000     4.355000000     0.925000000
C    -4.237000000     2.119000000     0.939000000
C    -4.974000000     1.032000000     0.506000000
H    -5.455000000     1.187000000    -0.456000000
C    -3.471000000     2.004000000     2.104000000
C    -3.408000000     0.798000000     2.771000000
H    -2.701000000     0.686000000     3.589000000
C    -4.165000000    -0.263000000     2.321000000
O    -3.918000000    -1.443000000     2.968000000
C    -2.951000000    -2.380000000     2.350000000
C    -1.919000000    -2.959000000     3.330000000
C    -1.203000000    -4.185000000     3.076000000
H    -1.443000000    -4.825000000     2.232000000
C    -1.587000000    -2.225000000     4.500000000
H    -2.173000000    -1.368000000     4.822000000
O    -3.608000000    -3.416000000     1.541000000
H    -2.473000000    -1.682000000     1.647000000
C    -4.868000000    -0.241000000     1.086000000
C    -5.510000000    -1.427000000     0.389000000
H    -6.219000000    -0.920000000    -0.269000000
H    -5.907000000    -2.014000000     1.220000000
C    -4.462000000    -2.153000000    -0.392000000
C    -4.222000000    -1.760000000    -1.751000000
H    -4.744000000    -0.926000000    -2.212000000
C    -3.651000000    -3.160000000     0.141000000
C    -2.678000000    -3.772000000    -0.626000000
H    -2.027000000    -4.481000000    -0.121000000
C    -2.457000000    -3.354000000    -1.951000000
O    -1.386000000    -3.873000000    -2.607000000
C    -0.315000000    -2.906000000    -2.861000000
C     1.018000000    -3.523000000    -2.396000000
C     0.991000000    -4.726000000    -1.735000000
H     0.050000000    -5.198000000    -1.466000000
C     2.183000000    -2.825000000    -2.565000000
H     2.154000000    -1.826000000    -2.994000000
O    -0.264000000    -2.406000000    -4.191000000
H    -0.550000000    -2.026000000    -2.245000000
C    -3.278000000    -2.380000000    -2.549000000
C    -3.183000000    -2.011000000    -4.001000000
H    -4.194000000    -1.745000000    -4.318000000
H    -2.920000000    -2.874000000    -4.617000000
C    -2.183000000    -0.868000000    -4.201000000
C    -0.849000000    -1.196000000    -4.416000000
C     0.024000000    -0.174000000    -4.644000000
H     1.096000000    -0.328000000    -4.741000000
C    -0.368000000     1.163000000    -4.463000000
O     0.603000000     2.101000000    -4.525000000
C     0.925000000     2.820000000    -3.345000000
H     0.597000000     2.125000000    -2.559000000
C     2.466000000     2.906000000    -3.315000000
C     2.983000000     3.881000000    -2.491000000
H     2.344000000     4.624000000    -2.019000000
C     3.353000000     2.033000000    -3.941000000
H     2.889000000     1.287000000    -4.580000000
C     4.741000000     2.155000000    -3.862000000
O     5.658000000     1.326000000    -4.500000000
C     5.273000000     3.191000000    -3.120000000
H     6.347000000     3.343000000    -3.060000000
C     4.393000000     3.987000000    -2.379000000
O     4.897000000     5.030000000    -1.731000000
C     4.339000000     5.471000000    -0.579000000
C     4.160000000     4.652000000     0.538000000
H     4.362000000     3.584000000     0.501000000
C     3.859000000     6.756000000    -0.581000000
H     3.926000000     7.298000000    -1.521000000
C     3.184000000     7.282000000     0.543000000
H     2.787000000     8.294000000     0.550000000
C     3.172000000     6.486000000     1.695000000
H     2.728000000     6.929000000     2.582000000
C     3.583000000     5.194000000     1.692000000
O     3.388000000     4.443000000     2.819000000
C     2.157000000     4.082000000     3.299000000
C     1.974000000     3.757000000     4.655000000
H     2.816000000     3.724000000     5.343000000
C     0.736000000     3.235000000     5.131000000
O     0.736000000     2.818000000     6.439000000
C     0.032000000     1.681000000     6.889000000
C     0.323000000     0.381000000     6.439000000
H     1.155000000     0.185000000     5.768000000
C    -1.027000000     1.866000000     7.675000000
H    -1.292000000     2.841000000     8.076000000
C    -1.923000000     0.819000000     8.051000000
H    -2.793000000     0.819000000     8.702000000
C    -1.550000000    -0.491000000     7.691000000
H    -2.199000000    -1.348000000     7.853000000
C    -0.458000000    -0.689000000     6.866000000
O    -0.056000000    -1.948000000     6.426000000
C    -0.592000000    -2.691000000     5.424000000
C     0.083000000    -3.837000000     5.105000000
H     0.823000000    -4.024000000     5.879000000
C    -0.202000000    -4.624000000     3.989000000
O     0.608000000    -5.669000000     3.755000000
C     0.756000000    -6.486000000     2.615000000
C     1.418000000    -6.104000000     1.516000000
H     1.964000000    -5.165000000     1.547000000
C     0.075000000    -7.712000000     2.653000000
H    -0.461000000    -8.105000000     3.514000000
C     0.000000000    -8.497000000     1.441000000
H    -0.602000000    -9.399000000     1.359000000
C     0.741000000    -8.029000000     0.291000000
H     0.629000000    -8.591000000    -0.633000000
C     1.462000000    -6.849000000     0.330000000
O     2.364000000    -6.550000000    -0.712000000
C     2.217000000    -5.346000000    -1.414000000
C     3.403000000    -4.705000000    -1.689000000
H     4.355000000    -5.219000000    -1.581000000
C     3.388000000    -3.433000000    -2.290000000
O     4.556000000    -2.860000000    -2.624000000
C     4.669000000    -2.054000000    -3.746000000
C     4.377000000    -2.523000000    -5.012000000
H     3.879000000    -3.475000000    -5.175000000
C     4.520000000    -1.791000000    -6.139000000
H     4.127000000    -2.061000000    -7.116000000
C     4.948000000    -0.487000000    -6.012000000
H     5.042000000     0.132000000    -6.901000000
C     5.242000000     0.000000000    -4.762000000
C     5.165000000    -0.774000000    -3.591000000
H     5.420000000    -0.399000000    -2.603000000
C     2.255000000    -0.242000000     1.816000000
H     2.414000000    -0.361000000     2.885000000
C     0.983000000    -0.359000000     1.350000000
H     0.202000000    -0.665000000     2.042000000
C     0.622000000    -0.022000000     0.044000000
C    -0.862000000     0.095000000    -0.262000000
H    -1.076000000     0.926000000    -0.937000000
H    -1.297000000    -0.835000000    -0.634000000
H    -1.369000000     0.213000000     0.698000000
C     1.648000000     0.211000000    -0.831000000
H     1.454000000     0.212000000    -1.901000000
C     2.923000000     0.429000000    -0.337000000
H     3.672000000     0.811000000    -1.027000000
C     3.257000000     0.190000000     0.996000000
C     4.697000000     0.351000000     1.487000000
O     5.588000000     0.633000000     0.689000000
O     5.020000000    -0.059000000     2.611000000
O     5.505000000    -2.956000000     2.735000000
H     4.922000000    -3.511000000     3.252000000
H     5.150000000    -2.073000000     2.839000000
O     5.312000000     2.860000000     5.423000000
H     5.770000000     2.790000000     4.586000000
H     4.942000000     1.989000000     5.568000000
O     8.987000000    -0.143000000     6.019000000
H     8.623000000    -0.318000000     5.151000000
H     8.280000000     0.296000000     6.492000000
O     5.357000000    -2.204000000     5.958000000
H     4.697000000    -2.740000000     6.398000000
H     6.151000000    -2.738000000     5.976000000
O     6.457000000    -5.967000000     2.624000000
H     7.127000000    -5.496000000     2.128000000
H     5.892000000    -5.278000000     2.976000000
O     6.593000000     5.794000000     2.204000000
H     5.993000000     6.192000000     2.835000000
H     6.419000000     4.855000000     2.268000000
O     7.420000000     1.781000000    -0.863000000
H     7.061000000     2.663000000    -0.768000000
H     6.755000000     1.210000000    -0.479000000
O     6.807000000     2.881000000     2.113000000
H     6.245000000     2.223000000     1.705000000
H     7.524000000     2.377000000     2.499000000
O     3.431000000    -4.298000000     4.021000000
H     3.798000000    -3.874000000     4.796000000
H     2.484000000    -4.259000000     4.152000000
O     6.860000000     1.682000000     7.584000000
H     6.312000000     1.894000000     6.829000000
H     6.548000000     2.263000000     8.278000000
O     8.873000000    -1.308000000     1.741000000
H     8.290000000    -1.967000000     1.363000000
H     9.006000000    -0.674000000     1.037000000
O     8.574000000     2.072000000    -3.256000000
H     8.823000000     1.164000000    -3.430000000
H     8.174000000     2.048000000    -2.387000000
O     7.467000000     0.077000000     3.894000000
H     6.594000000    -0.168000000     3.586000000
H     8.054000000    -0.184000000     3.185000000
O     9.677000000    -0.719000000    -1.129000000
H     8.867000000    -1.227000000    -1.093000000
H     9.869000000    -0.641000000    -2.063000000
O     9.812000000     1.931000000     0.122000000
H     8.928000000     1.628000000    -0.083000000
H    10.388000000     1.325000000    -0.346000000
O     8.039000000    -2.824000000    -3.596000000
H     7.844000000    -3.673000000    -3.992000000
H     7.633000000    -2.865000000    -2.730000000
O     7.711000000    -3.885000000     1.416000000
H     6.851000000    -3.484000000     1.543000000
H     7.735000000    -4.112000000     0.487000000
O     3.992000000     0.321000000     5.049000000
H     4.146000000    -0.532000000     5.456000000
H     4.369000000     0.239000000     4.173000000
O     6.832000000    -1.278000000    -0.700000000
H     6.064000000    -1.772000000    -0.987000000
H     6.473000000    -0.548000000    -0.197000000
