218
-1460.09210
C    -0.683000000     2.847000000     4.459000000
H    -1.684000000     2.439000000     4.345000000
C    -0.033000000     3.356000000     3.359000000
C     1.342000000     3.587000000     3.429000000
H     1.843000000     3.943000000     2.533000000
C    -0.786000000     3.580000000     2.060000000
O    -2.184000000     3.909000000     2.279000000
H    -0.645000000     2.650000000     1.491000000
O    -0.172000000     4.604000000     1.231000000
C    -0.095000000     4.528000000    -0.124000000
C     1.220000000     4.256000000    -0.586000000
H     1.960000000     4.173000000     0.206000000
C     1.393000000     3.905000000    -1.942000000
O     2.654000000     3.319000000    -2.210000000
C     0.304000000     4.015000000    -2.831000000
C     0.549000000     3.652000000    -4.342000000
H    -0.273000000     4.033000000    -4.952000000
C     0.529000000     2.144000000    -4.560000000
C    -0.667000000     1.554000000    -4.990000000
H    -1.536000000     2.203000000    -5.054000000
H     1.546000000     3.998000000    -4.620000000
C    -0.958000000     4.333000000    -2.352000000
H    -1.771000000     4.187000000    -3.059000000
C    -1.213000000     4.560000000    -0.964000000
C    -2.594000000     4.942000000    -0.454000000
H    -3.127000000     5.425000000    -1.275000000
H    -2.465000000     5.686000000     0.335000000
C    -3.329000000     3.813000000     0.153000000
C    -4.068000000     3.059000000    -0.761000000
H    -4.049000000     3.478000000    -1.763000000
C    -3.087000000     3.339000000     1.436000000
C    -3.677000000     2.158000000     1.943000000
H    -3.574000000     1.799000000     2.964000000
C    -4.497000000     1.436000000     0.958000000
O    -4.991000000     0.265000000     1.412000000
C    -4.125000000    -0.864000000     1.053000000
C    -3.776000000    -1.858000000     2.123000000
C    -3.760000000    -3.243000000     1.891000000
H    -3.910000000    -3.660000000     0.898000000
C    -3.429000000    -1.368000000     3.401000000
H    -3.529000000    -0.307000000     3.615000000
O    -4.758000000    -1.480000000    -0.030000000
H    -3.160000000    -0.513000000     0.658000000
C    -4.641000000     1.856000000    -0.354000000
C    -5.388000000     0.967000000    -1.268000000
H    -5.784000000     1.731000000    -1.942000000
H    -6.210000000     0.426000000    -0.794000000
C    -4.407000000    -0.032000000    -1.910000000
C    -3.911000000     0.183000000    -3.167000000
H    -4.070000000     1.171000000    -3.591000000
C    -4.248000000    -1.306000000    -1.322000000
C    -3.386000000    -2.205000000    -1.888000000
H    -3.235000000    -3.124000000    -1.328000000
C    -2.773000000    -1.933000000    -3.094000000
O    -1.919000000    -2.921000000    -3.571000000
C    -0.539000000    -2.643000000    -3.421000000
C     0.317000000    -3.747000000    -2.913000000
C    -0.032000000    -4.373000000    -1.720000000
H    -0.838000000    -3.889000000    -1.175000000
C     1.514000000    -4.180000000    -3.552000000
H     1.832000000    -3.743000000    -4.495000000
O    -0.036000000    -2.077000000    -4.666000000
H    -0.460000000    -1.853000000    -2.660000000
C    -3.001000000    -0.704000000    -3.819000000
C    -2.288000000    -0.323000000    -5.117000000
H    -2.889000000     0.472000000    -5.563000000
H    -2.226000000    -1.080000000    -5.902000000
C    -0.865000000     0.158000000    -4.956000000
C     0.189000000    -0.684000000    -4.788000000
C     1.397000000    -0.144000000    -4.442000000
H     2.099000000    -0.865000000    -4.032000000
C     1.610000000     1.254000000    -4.330000000
O     2.846000000     1.572000000    -3.751000000
C     2.791000000     1.932000000    -2.379000000
H     1.913000000     1.501000000    -1.874000000
C     4.103000000     1.354000000    -1.699000000
C     4.789000000     2.070000000    -0.756000000
H     4.369000000     3.038000000    -0.498000000
C     4.471000000     0.036000000    -2.025000000
H     3.943000000    -0.548000000    -2.774000000
C     5.634000000    -0.517000000    -1.384000000
O     6.100000000    -1.799000000    -1.620000000
C     6.191000000     0.132000000    -0.316000000
H     7.014000000    -0.405000000     0.149000000
C     5.792000000     1.449000000    -0.024000000
O     6.452000000     2.200000000     0.904000000
C     5.831000000     3.098000000     1.695000000
C     4.920000000     2.735000000     2.681000000
H     4.625000000     1.691000000     2.741000000
C     6.022000000     4.478000000     1.417000000
H     6.685000000     4.805000000     0.620000000
C     5.365000000     5.416000000     2.182000000
H     5.512000000     6.484000000     2.044000000
C     4.520000000     5.054000000     3.223000000
H     3.826000000     5.732000000     3.713000000
C     4.292000000     3.692000000     3.553000000
O     3.430000000     3.325000000     4.634000000
C     2.034000000     3.326000000     4.613000000
C     1.328000000     2.952000000     5.755000000
H     1.909000000     2.706000000     6.640000000
C    -0.022000000     2.648000000     5.673000000
O    -0.702000000     2.323000000     6.814000000
C    -1.885000000     1.635000000     6.872000000
C    -1.822000000     0.285000000     6.588000000
H    -0.831000000    -0.159000000     6.640000000
C    -3.123000000     2.249000000     6.843000000
H    -3.158000000     3.319000000     7.031000000
C    -4.283000000     1.537000000     6.620000000
H    -5.262000000     2.008000000     6.594000000
C    -4.203000000     0.176000000     6.275000000
H    -5.003000000    -0.548000000     6.141000000
C    -2.976000000    -0.461000000     6.285000000
O    -2.963000000    -1.739000000     5.816000000
C    -3.105000000    -2.212000000     4.464000000
C    -3.173000000    -3.576000000     4.284000000
H    -3.039000000    -4.188000000     5.172000000
C    -3.347000000    -4.093000000     2.981000000
O    -3.265000000    -5.385000000     2.786000000
C    -2.425000000    -6.088000000     1.944000000
C    -1.227000000    -5.583000000     1.628000000
H    -0.883000000    -4.626000000     2.013000000
C    -2.822000000    -7.344000000     1.537000000
H    -3.789000000    -7.797000000     1.738000000
C    -2.014000000    -8.054000000     0.651000000
H    -2.288000000    -9.013000000     0.219000000
C    -0.837000000    -7.465000000     0.185000000
H    -0.164000000    -7.956000000    -0.514000000
C    -0.384000000    -6.260000000     0.719000000
O     0.681000000    -5.590000000     0.228000000
C     0.835000000    -5.253000000    -1.069000000
C     1.915000000    -5.661000000    -1.742000000
H     2.505000000    -6.407000000    -1.215000000
C     2.354000000    -5.082000000    -2.946000000
O     3.517000000    -5.328000000    -3.517000000
C     4.451000000    -4.359000000    -3.715000000
C     4.908000000    -4.053000000    -4.979000000
H     4.638000000    -4.580000000    -5.890000000
C     5.693000000    -2.917000000    -5.094000000
H     6.061000000    -2.567000000    -6.055000000
C     6.157000000    -2.158000000    -4.035000000
H     6.890000000    -1.356000000    -4.041000000
C     5.788000000    -2.600000000    -2.759000000
C     4.921000000    -3.660000000    -2.580000000
H     4.455000000    -3.840000000    -1.614000000
C    -0.208000000    -1.177000000     2.452000000
H    -0.471000000    -1.168000000     3.507000000
C    -0.796000000    -0.203000000     1.589000000
H    -1.508000000     0.490000000     2.031000000
C    -0.261000000    -0.037000000     0.308000000
C    -0.914000000     0.891000000    -0.668000000
H    -1.781000000     1.180000000    -0.070000000
H    -0.273000000     1.708000000    -1.006000000
H    -1.167000000     0.387000000    -1.603000000
C     0.826000000    -0.873000000    -0.119000000
H     1.254000000    -0.693000000    -1.102000000
C     1.333000000    -1.871000000     0.699000000
H     2.014000000    -2.617000000     0.299000000
C     0.843000000    -2.023000000     1.949000000
C     1.464000000    -3.089000000     2.808000000
O     2.603000000    -3.465000000     2.575000000
O     0.918000000    -3.529000000     3.814000000
O     6.874000000    -3.864000000     1.393000000
H     6.481000000    -3.865000000     2.266000000
H     6.416000000    -3.166000000     0.925000000
O     3.391000000    -3.509000000     9.490000000
H     3.948000000    -4.243000000     9.750000000
H     3.089000000    -3.737000000     8.611000000
O     4.826000000    -2.085000000     2.154000000
H     4.306000000    -1.281000000     2.161000000
H     4.204000000    -2.774000000     2.387000000
O    -1.088000000    -3.596000000     8.433000000
H    -0.314000000    -3.033000000     8.455000000
H    -1.109000000    -3.939000000     7.540000000
O    -0.666000000    -7.485000000     5.811000000
H    -0.830000000    -7.484000000     6.754000000
H     0.118000000    -8.023000000     5.704000000
O     3.010000000    -5.028000000     4.913000000
H     3.776000000    -4.650000000     4.482000000
H     2.263000000    -4.601000000     4.494000000
O     5.651000000    -7.205000000     1.148000000
H     4.898000000    -6.746000000     1.519000000
H     5.851000000    -6.725000000     0.344000000
O     3.191000000    -3.076000000     6.841000000
H     3.952000000    -2.598000000     6.509000000
H     3.013000000    -3.736000000     6.172000000
O     1.368000000    -9.747000000     4.338000000
H     1.915000000   -10.424000000     4.736000000
H     1.954000000    -8.997000000     4.234000000
O     4.160000000     0.277000000     5.639000000
H     4.657000000    -0.112000000     4.920000000
H     3.372000000     0.626000000     5.224000000
O     6.414000000    -1.137000000     4.383000000
H     7.327000000    -1.223000000     4.109000000
H     5.925000000    -1.671000000     3.758000000
O     5.957000000    -4.939000000     4.228000000
H     6.858000000    -5.138000000     3.973000000
H     5.700000000    -5.672000000     4.789000000
O     2.942000000    -7.484000000     3.962000000
H     2.754000000    -7.129000000     3.093000000
H     3.049000000    -6.712000000     4.517000000
O     1.548000000    -5.394000000     8.084000000
H     0.933000000    -5.267000000     8.806000000
H     1.087000000    -5.060000000     7.314000000
O     2.719000000    -0.150000000     2.750000000
H     2.221000000    -0.444000000     1.988000000
H     2.116000000    -0.256000000     3.486000000
O     5.986000000    -7.989000000     3.739000000
H     5.684000000    -7.962000000     2.831000000
H     5.347000000    -7.462000000     4.220000000
O    -0.390000000    -4.436000000     6.053000000
H    -0.658000000    -5.303000000     5.748000000
H     0.043000000    -4.039000000     5.297000000
O     1.424000000    -1.286000000     5.312000000
H     1.809000000    -1.341000000     6.187000000
H     1.399000000    -2.192000000     5.005000000
O     3.198000000    -5.916000000     1.530000000
H     3.010000000    -5.046000000     1.882000000
H     2.433000000    -6.128000000     0.994000000
