218
-1454.85478
C    -1.162000000     2.134000000     4.133000000
H    -2.187000000     1.806000000     3.986000000
C    -0.493000000     2.932000000     3.222000000
C     0.828000000     3.267000000     3.498000000
H     1.369000000     3.931000000     2.828000000
C    -1.124000000     3.233000000     1.965000000
O    -2.571000000     3.289000000     2.171000000
H    -0.986000000     2.410000000     1.249000000
O    -0.662000000     4.460000000     1.356000000
C    -0.374000000     4.320000000     0.011000000
C     0.900000000     4.422000000    -0.433000000
H     1.690000000     4.531000000     0.306000000
C     1.203000000     4.394000000    -1.785000000
O     2.537000000     4.143000000    -2.087000000
C     0.162000000     4.247000000    -2.723000000
C     0.477000000     4.075000000    -4.185000000
H    -0.413000000     4.330000000    -4.764000000
C     0.627000000     2.541000000    -4.399000000
C    -0.517000000     1.782000000    -4.587000000
H    -1.507000000     2.224000000    -4.666000000
H     1.384000000     4.549000000    -4.567000000
C    -1.187000000     4.178000000    -2.294000000
H    -2.040000000     4.244000000    -2.965000000
C    -1.439000000     4.186000000    -0.923000000
C    -2.947000000     4.231000000    -0.411000000
H    -3.514000000     4.593000000    -1.271000000
H    -3.052000000     4.988000000     0.369000000
C    -3.540000000     2.959000000     0.009000000
C    -4.277000000     2.249000000    -0.865000000
H    -4.363000000     2.583000000    -1.896000000
C    -3.470000000     2.566000000     1.324000000
C    -4.022000000     1.403000000     1.750000000
H    -3.968000000     1.063000000     2.781000000
C    -4.701000000     0.590000000     0.800000000
O    -4.963000000    -0.700000000     1.168000000
C    -4.120000000    -1.729000000     0.728000000
C    -3.983000000    -2.672000000     1.891000000
C    -3.495000000    -4.024000000     1.818000000
H    -3.283000000    -4.398000000     0.819000000
C    -4.250000000    -2.222000000     3.190000000
H    -4.606000000    -1.244000000     3.503000000
O    -4.561000000    -2.276000000    -0.504000000
H    -3.164000000    -1.229000000     0.512000000
C    -4.861000000     1.008000000    -0.523000000
C    -5.468000000     0.132000000    -1.609000000
H    -5.913000000     0.859000000    -2.293000000
H    -6.238000000    -0.427000000    -1.074000000
C    -4.360000000    -0.639000000    -2.296000000
C    -3.632000000    -0.150000000    -3.382000000
H    -3.993000000     0.792000000    -3.787000000
C    -3.960000000    -1.844000000    -1.708000000
C    -2.959000000    -2.649000000    -2.245000000
H    -2.802000000    -3.677000000    -1.927000000
C    -2.201000000    -2.110000000    -3.291000000
O    -1.185000000    -2.910000000    -3.743000000
C     0.150000000    -2.445000000    -3.291000000
C     1.122000000    -3.427000000    -2.688000000
C     0.668000000    -4.331000000    -1.812000000
H    -0.418000000    -4.345000000    -1.780000000
C     2.505000000    -3.217000000    -2.855000000
H     2.883000000    -2.527000000    -3.606000000
O     0.820000000    -1.639000000    -4.320000000
H    -0.036000000    -1.819000000    -2.406000000
C    -2.559000000    -0.877000000    -3.863000000
C    -1.748000000    -0.370000000    -5.028000000
H    -2.395000000     0.219000000    -5.682000000
H    -1.491000000    -1.268000000    -5.593000000
C    -0.437000000     0.390000000    -4.688000000
C     0.729000000    -0.295000000    -4.436000000
C     1.844000000     0.476000000    -4.201000000
H     2.779000000    -0.012000000    -3.940000000
C     1.781000000     1.900000000    -4.196000000
O     2.937000000     2.554000000    -3.687000000
C     2.933000000     2.793000000    -2.239000000
H     2.231000000     2.189000000    -1.646000000
C     4.317000000     2.522000000    -1.639000000
C     4.572000000     2.910000000    -0.350000000
H     3.907000000     3.520000000     0.256000000
C     5.172000000     1.692000000    -2.331000000
H     4.941000000     1.169000000    -3.255000000
C     6.352000000     1.234000000    -1.760000000
O     7.148000000     0.237000000    -2.351000000
C     6.639000000     1.667000000    -0.476000000
H     7.598000000     1.452000000    -0.013000000
C     5.795000000     2.465000000     0.237000000
O     6.160000000     2.916000000     1.492000000
C     5.432000000     3.649000000     2.358000000
C     4.568000000     2.957000000     3.198000000
H     4.630000000     1.872000000     3.176000000
C     5.475000000     5.033000000     2.345000000
H     6.121000000     5.739000000     1.830000000
C     4.768000000     5.775000000     3.276000000
H     4.985000000     6.840000000     3.306000000
C     3.840000000     5.100000000     4.070000000
H     3.175000000     5.497000000     4.832000000
C     3.714000000     3.689000000     4.019000000
O     2.871000000     3.047000000     4.883000000
C     1.494000000     2.847000000     4.638000000
C     0.826000000     2.006000000     5.492000000
H     1.356000000     1.586000000     6.343000000
C    -0.481000000     1.635000000     5.281000000
O    -1.037000000     0.802000000     6.217000000
C    -2.375000000     0.394000000     6.266000000
C    -2.647000000    -0.886000000     5.827000000
H    -1.869000000    -1.521000000     5.411000000
C    -3.363000000     1.256000000     6.665000000
H    -3.021000000     2.266000000     6.874000000
C    -4.738000000     0.902000000     6.603000000
H    -5.538000000     1.606000000     6.817000000
C    -5.002000000    -0.433000000     6.320000000
H    -6.061000000    -0.640000000     6.182000000
C    -3.997000000    -1.285000000     5.825000000
O    -4.310000000    -2.632000000     5.506000000
C    -4.053000000    -3.098000000     4.254000000
C    -3.777000000    -4.445000000     4.128000000
H    -3.858000000    -5.087000000     5.001000000
C    -3.405000000    -4.911000000     2.908000000
O    -2.941000000    -6.136000000     2.844000000
C    -2.211000000    -6.600000000     1.731000000
C    -1.048000000    -5.942000000     1.437000000
H    -0.563000000    -5.365000000     2.220000000
C    -2.774000000    -7.452000000     0.788000000
H    -3.791000000    -7.806000000     0.936000000
C    -2.074000000    -7.793000000    -0.406000000
H    -2.579000000    -8.386000000    -1.164000000
C    -0.888000000    -7.170000000    -0.672000000
H    -0.333000000    -7.475000000    -1.556000000
C    -0.303000000    -6.264000000     0.240000000
O     1.037000000    -5.940000000     0.068000000
C     1.502000000    -5.149000000    -1.051000000
C     2.908000000    -5.037000000    -1.262000000
H     3.577000000    -5.572000000    -0.593000000
C     3.372000000    -4.081000000    -2.130000000
O     4.733000000    -4.091000000    -2.280000000
C     5.216000000    -2.975000000    -2.918000000
C     5.262000000    -3.033000000    -4.324000000
H     4.925000000    -3.962000000    -4.776000000
C     5.867000000    -2.012000000    -5.078000000
H     5.795000000    -2.014000000    -6.162000000
C     6.544000000    -0.929000000    -4.375000000
H     7.082000000    -0.098000000    -4.823000000
C     6.469000000    -0.817000000    -2.999000000
C     5.925000000    -1.966000000    -2.303000000
H     5.957000000    -1.958000000    -1.217000000
C    -0.207000000    -1.746000000     1.916000000
H    -0.705000000    -1.983000000     2.853000000
C    -0.737000000    -0.699000000     1.121000000
H    -1.671000000    -0.208000000     1.383000000
C    -0.086000000    -0.374000000    -0.075000000
C    -0.720000000     0.661000000    -1.017000000
H    -0.265000000     1.653000000    -1.070000000
H    -0.652000000     0.254000000    -2.028000000
H    -1.767000000     0.759000000    -0.722000000
C     1.135000000    -0.949000000    -0.420000000
H     1.610000000    -0.600000000    -1.334000000
C     1.595000000    -1.963000000     0.361000000
H     2.539000000    -2.428000000     0.091000000
C     0.980000000    -2.402000000     1.521000000
C     1.552000000    -3.458000000     2.454000000
O     2.481000000    -4.151000000     2.146000000
O     1.139000000    -3.609000000     3.592000000
O     7.802000000    -3.026000000     2.035000000
H     7.763000000    -3.861000000     2.502000000
H     7.875000000    -3.271000000     1.112000000
O     3.918000000    -4.105000000     4.916000000
H     3.572000000    -4.820000000     5.450000000
H     3.265000000    -3.982000000     4.227000000
O     2.795000000    -8.600000000     0.545000000
H     2.296000000    -9.160000000     1.140000000
H     3.233000000    -7.971000000     1.119000000
O     4.346000000     0.085000000     5.367000000
H     3.859000000     0.598000000     4.722000000
H     4.676000000    -0.666000000     4.875000000
O    -1.528000000    -5.279000000     7.362000000
H    -1.406000000    -5.647000000     6.487000000
H    -1.308000000    -4.352000000     7.265000000
O     5.612000000    -2.014000000     4.124000000
H     5.745000000    -2.322000000     3.228000000
H     5.191000000    -2.749000000     4.570000000
O     6.222000000    -5.751000000     2.452000000
H     6.386000000    -6.466000000     1.837000000
H     6.807000000    -5.929000000     3.188000000
O     2.207000000    -9.212000000     6.088000000
H     2.986000000    -8.908000000     5.624000000
H     1.663000000    -8.430000000     6.183000000
O    -1.026000000    -7.500000000     5.426000000
H    -0.955000000    -8.389000000     5.077000000
H    -0.255000000    -7.047000000     5.084000000
O     4.909000000    -3.552000000     1.140000000
H     4.051000000    -3.688000000     1.541000000
H     5.453000000    -4.255000000     1.496000000
O     1.276000000    -6.205000000     4.531000000
H     1.221000000    -5.318000000     4.176000000
H     2.069000000    -6.571000000     4.138000000
O     2.731000000    -0.342000000     2.869000000
H     2.452000000    -1.078000000     3.414000000
H     2.246000000    -0.451000000     2.051000000
O    -0.082000000    -9.520000000     2.401000000
H    -0.177000000    -8.615000000     2.103000000
H    -0.487000000    -9.530000000     3.269000000
O     2.722000000    -8.128000000    -2.287000000
H     1.910000000    -8.504000000    -2.627000000
H     2.622000000    -8.161000000    -1.336000000
O     1.525000000    -6.608000000     7.293000000
H     1.382000000    -6.095000000     8.088000000
H     1.187000000    -6.056000000     6.588000000
O    -0.302000000    -3.528000000     5.813000000
H     0.120000000    -3.664000000     4.965000000
H     0.201000000    -2.823000000     6.220000000
O     4.109000000    -8.162000000     4.588000000
H     3.877000000    -7.710000000     3.777000000
H     4.995000000    -8.490000000     4.435000000
O     1.105000000    -1.985000000     7.997000000
H     0.831000000    -1.319000000     8.628000000
H     1.747000000    -1.540000000     7.443000000
O     3.452000000    -6.494000000     2.343000000
H     4.306000000    -6.112000000     2.544000000
H     2.900000000    -5.743000000     2.123000000
