218
-1459.73940
C    -1.363000000     2.155000000     4.976000000
H    -2.406000000     1.850000000     5.012000000
C    -0.845000000     2.851000000     3.871000000
C     0.465000000     3.295000000     3.869000000
H     0.857000000     3.899000000     3.054000000
C    -1.630000000     2.961000000     2.567000000
O    -2.975000000     2.560000000     2.777000000
H    -1.110000000     2.258000000     1.899000000
O    -1.597000000     4.251000000     1.951000000
C    -1.559000000     4.333000000     0.611000000
C    -0.285000000     4.492000000     0.075000000
H     0.564000000     4.796000000     0.682000000
C    -0.051000000     4.295000000    -1.285000000
O     1.215000000     4.379000000    -1.762000000
C    -1.097000000     4.050000000    -2.081000000
C    -1.012000000     4.166000000    -3.605000000
H    -1.887000000     4.662000000    -4.031000000
C    -0.660000000     2.773000000    -4.114000000
C    -1.746000000     1.914000000    -4.426000000
H    -2.770000000     2.235000000    -4.255000000
H    -0.193000000     4.862000000    -3.797000000
C    -2.361000000     3.856000000    -1.596000000
H    -3.208000000     3.689000000    -2.256000000
C    -2.577000000     3.926000000    -0.247000000
C    -3.926000000     3.744000000     0.307000000
H    -4.700000000     3.971000000    -0.430000000
H    -4.078000000     4.378000000     1.183000000
C    -4.125000000     2.272000000     0.672000000
C    -4.838000000     1.425000000    -0.152000000
H    -5.189000000     1.774000000    -1.120000000
C    -3.649000000     1.769000000     1.913000000
C    -3.878000000     0.469000000     2.333000000
H    -3.512000000     0.029000000     3.257000000
C    -4.485000000    -0.411000000     1.393000000
O    -4.377000000    -1.716000000     1.681000000
C    -3.369000000    -2.504000000     0.987000000
C    -2.641000000    -3.370000000     2.039000000
C    -2.135000000    -4.569000000     1.605000000
H    -2.202000000    -4.795000000     0.544000000
C    -2.389000000    -2.903000000     3.319000000
H    -2.776000000    -1.950000000     3.670000000
O    -3.924000000    -3.198000000    -0.180000000
H    -2.614000000    -1.806000000     0.598000000
C    -4.937000000     0.074000000     0.172000000
C    -5.522000000    -0.831000000    -0.841000000
H    -6.286000000    -0.374000000    -1.473000000
H    -5.974000000    -1.726000000    -0.409000000
C    -4.409000000    -1.445000000    -1.763000000
C    -4.116000000    -0.804000000    -2.958000000
H    -4.717000000     0.026000000    -3.322000000
C    -3.721000000    -2.535000000    -1.394000000
C    -2.579000000    -2.972000000    -2.123000000
H    -2.088000000    -3.899000000    -1.837000000
C    -2.253000000    -2.290000000    -3.274000000
O    -1.167000000    -2.761000000    -3.940000000
C     0.049000000    -2.032000000    -3.822000000
C     1.309000000    -2.889000000    -3.552000000
C     1.321000000    -3.877000000    -2.595000000
H     0.394000000    -3.992000000    -2.039000000
C     2.440000000    -2.764000000    -4.285000000
H     2.514000000    -1.958000000    -5.010000000
O     0.170000000    -1.157000000    -4.943000000
H     0.018000000    -1.408000000    -2.916000000
C    -3.062000000    -1.214000000    -3.753000000
C    -2.640000000    -0.373000000    -4.949000000
H    -3.480000000     0.153000000    -5.407000000
H    -2.398000000    -1.036000000    -5.783000000
C    -1.493000000     0.553000000    -4.790000000
C    -0.149000000     0.125000000    -4.833000000
C     0.960000000     0.982000000    -4.563000000
H     2.006000000     0.685000000    -4.538000000
C     0.672000000     2.220000000    -4.090000000
O     1.739000000     2.923000000    -3.631000000
C     1.789000000     3.131000000    -2.170000000
H     1.201000000     2.292000000    -1.769000000
C     3.241000000     2.913000000    -1.674000000
C     3.648000000     3.726000000    -0.617000000
H     3.127000000     4.635000000    -0.329000000
C     3.983000000     1.833000000    -2.142000000
H     3.581000000     1.145000000    -2.881000000
C     5.254000000     1.608000000    -1.556000000
O     5.961000000     0.485000000    -1.751000000
C     5.677000000     2.436000000    -0.525000000
H     6.639000000     2.277000000    -0.046000000
C     4.885000000     3.414000000     0.007000000
O     5.353000000     4.138000000     1.108000000
C     4.538000000     4.623000000     2.108000000
C     3.830000000     3.726000000     3.026000000
H     3.840000000     2.643000000     2.930000000
C     4.569000000     5.939000000     2.350000000
H     5.103000000     6.595000000     1.667000000
C     3.902000000     6.486000000     3.447000000
H     3.955000000     7.551000000     3.660000000
C     3.255000000     5.646000000     4.330000000
H     2.761000000     5.986000000     5.237000000
C     3.240000000     4.275000000     4.104000000
O     2.605000000     3.470000000     5.022000000
C     1.257000000     3.063000000     4.941000000
C     0.760000000     2.309000000     6.056000000
H     1.370000000     2.185000000     6.947000000
C    -0.532000000     1.921000000     6.065000000
O    -0.937000000     1.116000000     7.065000000
C    -1.696000000    -0.008000000     6.988000000
C    -1.189000000    -1.111000000     6.238000000
H    -0.220000000    -1.011000000     5.757000000
C    -2.850000000    -0.198000000     7.700000000
H    -3.258000000     0.614000000     8.296000000
C    -3.535000000    -1.405000000     7.646000000
H    -4.451000000    -1.528000000     8.219000000
C    -3.029000000    -2.444000000     6.896000000
H    -3.579000000    -3.380000000     6.866000000
C    -1.868000000    -2.325000000     6.090000000
O    -1.276000000    -3.318000000     5.428000000
C    -1.575000000    -3.723000000     4.138000000
C    -1.096000000    -4.962000000     3.677000000
H    -0.480000000    -5.545000000     4.357000000
C    -1.445000000    -5.463000000     2.467000000
O    -0.962000000    -6.615000000     1.978000000
C    -0.530000000    -6.827000000     0.705000000
C     0.606000000    -6.186000000     0.293000000
H     1.081000000    -5.597000000     1.074000000
C    -1.400000000    -7.261000000    -0.338000000
H    -2.449000000    -7.532000000    -0.241000000
C    -0.951000000    -7.362000000    -1.618000000
H    -1.647000000    -7.710000000    -2.377000000
C     0.299000000    -6.912000000    -1.961000000
H     0.603000000    -6.798000000    -2.999000000
C     1.061000000    -6.273000000    -1.019000000
O     2.229000000    -5.656000000    -1.378000000
C     2.418000000    -4.661000000    -2.304000000
C     3.543000000    -4.435000000    -3.055000000
H     4.391000000    -5.067000000    -2.806000000
C     3.594000000    -3.492000000    -4.015000000
O     4.759000000    -3.126000000    -4.550000000
C     5.386000000    -1.966000000    -4.317000000
C     6.020000000    -1.348000000    -5.422000000
H     6.152000000    -1.839000000    -6.383000000
C     6.692000000    -0.143000000    -5.251000000
H     7.283000000     0.226000000    -6.086000000
C     6.528000000     0.491000000    -4.045000000
H     7.085000000     1.390000000    -3.795000000
C     5.959000000    -0.149000000    -2.969000000
C     5.444000000    -1.404000000    -3.063000000
H     4.979000000    -1.961000000    -2.253000000
C     0.635000000    -1.499000000     2.291000000
H     0.369000000    -1.766000000     3.311000000
C    -0.203000000    -0.561000000     1.589000000
H    -1.066000000    -0.191000000     2.137000000
C     0.025000000    -0.395000000     0.189000000
C    -0.899000000     0.450000000    -0.706000000
H    -1.007000000     0.074000000    -1.725000000
H    -1.813000000     0.753000000    -0.191000000
H    -0.352000000     1.391000000    -0.800000000
C     1.109000000    -1.030000000    -0.364000000
H     1.258000000    -0.975000000    -1.440000000
C     1.918000000    -1.921000000     0.328000000
H     2.692000000    -2.437000000    -0.235000000
C     1.687000000    -2.190000000     1.646000000
C     2.454000000    -3.263000000     2.409000000
O     3.068000000    -4.092000000     1.787000000
O     2.246000000    -3.440000000     3.606000000
O     6.262000000     0.923000000     3.282000000
H     5.760000000     0.682000000     2.503000000
H     6.094000000     0.216000000     3.904000000
O     3.976000000    -5.719000000     3.663000000
H     3.417000000    -5.823000000     4.433000000
H     3.484000000    -5.133000000     3.087000000
O     2.682000000    -1.011000000     5.077000000
H     2.071000000    -1.615000000     4.655000000
H     3.526000000    -1.460000000     5.040000000
O     2.389000000    -8.517000000     5.188000000
H     1.562000000    -8.382000000     4.726000000
H     2.718000000    -9.350000000     4.851000000
O     5.378000000    -8.310000000     2.113000000
H     5.211000000    -8.513000000     3.033000000
H     4.910000000    -7.489000000     1.960000000
O     3.921000000     1.000000000     6.178000000
H     3.325000000     0.253000000     6.128000000
H     3.927000000     1.361000000     5.291000000
O     6.237000000    -4.388000000     3.411000000
H     5.586000000    -4.019000000     4.008000000
H     5.831000000    -5.190000000     3.081000000
O     3.857000000    -6.396000000     0.747000000
H     3.490000000    -5.578000000     1.081000000
H     3.616000000    -6.406000000    -0.179000000
O    -0.440000000    -6.249000000     7.091000000
H     0.179000000    -5.795000000     6.519000000
H     0.026000000    -7.037000000     7.369000000
O     4.631000000     0.022000000     1.336000000
H     3.721000000     0.113000000     1.053000000
H     4.891000000    -0.847000000     1.031000000
O     5.129000000    -2.606000000     0.633000000
H     4.716000000    -3.214000000     1.246000000
H     5.888000000    -3.083000000     0.298000000
O     8.207000000    -3.451000000     5.296000000
H     7.759000000    -3.705000000     4.489000000
H     8.009000000    -4.156000000     5.912000000
O     0.116000000    -8.107000000     3.793000000
H    -0.676000000    -8.312000000     4.289000000
H    -0.160000000    -7.439000000     3.165000000
O     2.324000000    -8.856000000     1.233000000
H     1.777000000    -8.313000000     0.665000000
H     3.115000000    -8.336000000     1.372000000
O     4.545000000    -3.081000000     4.960000000
H     4.502000000    -3.709000000     5.681000000
H     3.920000000    -3.413000000     4.315000000
O     6.765000000    -4.366000000    -0.945000000
H     7.556000000    -4.092000000    -1.409000000
H     7.052000000    -5.092000000    -0.391000000
O     4.654000000    -4.916000000     7.055000000
H     4.531000000    -4.715000000     7.983000000
H     4.801000000    -5.861000000     7.032000000
O     1.862000000    -5.043000000     5.700000000
H     1.943000000    -4.437000000     4.964000000
H     2.715000000    -5.010000000     6.132000000
O     6.407000000    -1.182000000     5.373000000
H     5.730000000    -1.858000000     5.405000000
H     7.225000000    -1.667000000     5.265000000
