218
-1459.36770
C     0.984000000     1.822000000     4.884000000
H     0.119000000     1.210000000     5.125000000
C     0.886000000     2.832000000     3.947000000
C     1.891000000     3.778000000     3.896000000
H     1.849000000     4.529000000     3.112000000
C    -0.372000000     2.899000000     3.140000000
O    -1.530000000     2.533000000     3.929000000
H    -0.281000000     2.150000000     2.340000000
O    -0.565000000     4.186000000     2.556000000
C    -1.077000000     4.259000000     1.321000000
C    -0.156000000     4.441000000     0.348000000
H     0.898000000     4.600000000     0.563000000
C    -0.540000000     4.437000000    -0.998000000
O     0.431000000     4.346000000    -1.973000000
C    -1.886000000     4.341000000    -1.325000000
C    -2.293000000     4.207000000    -2.791000000
H    -3.259000000     4.675000000    -2.995000000
C    -2.282000000     2.735000000    -3.273000000
C    -3.424000000     1.865000000    -3.316000000
H    -4.344000000     2.220000000    -2.858000000
H    -1.653000000     4.881000000    -3.364000000
C    -2.837000000     4.139000000    -0.308000000
H    -3.901000000     4.050000000    -0.509000000
C    -2.419000000     4.123000000     0.939000000
C    -3.394000000     3.816000000     2.041000000
H    -4.360000000     4.225000000     1.737000000
H    -3.180000000     4.482000000     2.879000000
C    -3.388000000     2.380000000     2.453000000
C    -4.242000000     1.473000000     1.768000000
H    -4.915000000     1.781000000     0.972000000
C    -2.464000000     1.806000000     3.354000000
C    -2.447000000     0.401000000     3.642000000
H    -1.628000000    -0.026000000     4.214000000
C    -3.301000000    -0.449000000     2.944000000
O    -3.037000000    -1.760000000     3.091000000
C    -2.351000000    -2.371000000     1.971000000
C    -1.370000000    -3.321000000     2.586000000
C    -0.931000000    -4.425000000     1.868000000
H    -1.082000000    -4.547000000     0.798000000
C    -0.826000000    -3.052000000     3.821000000
H    -0.973000000    -2.097000000     4.319000000
O    -3.343000000    -3.074000000     1.090000000
H    -1.828000000    -1.596000000     1.392000000
C    -4.211000000     0.050000000     2.020000000
C    -5.179000000    -0.855000000     1.242000000
H    -6.117000000    -0.330000000     1.053000000
H    -5.445000000    -1.764000000     1.786000000
C    -4.570000000    -1.380000000    -0.086000000
C    -4.982000000    -0.787000000    -1.270000000
H    -5.788000000    -0.057000000    -1.259000000
C    -3.774000000    -2.499000000    -0.088000000
C    -3.232000000    -3.003000000    -1.252000000
H    -2.601000000    -3.887000000    -1.221000000
C    -3.550000000    -2.395000000    -2.420000000
O    -2.860000000    -2.841000000    -3.531000000
C    -1.649000000    -2.119000000    -3.796000000
C    -0.483000000    -2.987000000    -4.144000000
C    -0.353000000    -4.251000000    -3.513000000
H    -1.126000000    -4.686000000    -2.885000000
C     0.575000000    -2.528000000    -4.917000000
H     0.512000000    -1.624000000    -5.517000000
O    -1.998000000    -1.190000000    -4.912000000
H    -1.331000000    -1.532000000    -2.922000000
C    -4.367000000    -1.284000000    -2.437000000
C    -4.539000000    -0.471000000    -3.720000000
H    -5.515000000     0.017000000    -3.694000000
H    -4.532000000    -1.087000000    -4.622000000
C    -3.332000000     0.540000000    -3.800000000
C    -2.178000000     0.111000000    -4.447000000
C    -1.010000000     0.888000000    -4.127000000
H    -0.051000000     0.468000000    -4.422000000
C    -1.053000000     2.222000000    -3.752000000
O     0.147000000     2.874000000    -3.663000000
C     0.734000000     3.003000000    -2.328000000
H     0.366000000     2.229000000    -1.639000000
C     2.252000000     2.896000000    -2.359000000
C     3.120000000     3.672000000    -1.486000000
H     2.649000000     4.536000000    -1.025000000
C     2.866000000     1.828000000    -3.029000000
H     2.347000000     1.171000000    -3.723000000
C     4.258000000     1.503000000    -2.853000000
O     4.852000000     0.489000000    -3.558000000
C     4.961000000     2.320000000    -2.000000000
H     6.035000000     2.177000000    -1.909000000
C     4.454000000     3.370000000    -1.304000000
O     5.244000000     4.050000000    -0.385000000
C     4.739000000     4.871000000     0.629000000
C     4.641000000     4.346000000     1.898000000
H     4.847000000     3.293000000     2.072000000
C     4.349000000     6.214000000     0.410000000
H     4.565000000     6.639000000    -0.567000000
C     3.938000000     6.889000000     1.538000000
H     3.782000000     7.965000000     1.560000000
C     3.854000000     6.325000000     2.807000000
H     3.428000000     6.888000000     3.633000000
C     4.237000000     5.013000000     2.988000000
O     4.179000000     4.410000000     4.241000000
C     3.035000000     3.635000000     4.651000000
C     3.174000000     2.583000000     5.574000000
H     4.136000000     2.435000000     6.059000000
C     2.111000000     1.699000000     5.692000000
O     2.351000000     0.714000000     6.607000000
C     1.491000000    -0.340000000     6.904000000
C     1.611000000    -1.498000000     6.113000000
H     2.390000000    -1.562000000     5.358000000
C     0.429000000    -0.211000000     7.843000000
H     0.435000000     0.630000000     8.532000000
C    -0.496000000    -1.274000000     7.895000000
H    -1.295000000    -1.314000000     8.630000000
C    -0.283000000    -2.455000000     7.147000000
H    -0.962000000    -3.301000000     7.083000000
C     0.730000000    -2.530000000     6.248000000
O     0.878000000    -3.604000000     5.426000000
C     0.136000000    -3.963000000     4.313000000
C     0.502000000    -5.088000000     3.638000000
H     1.243000000    -5.796000000     3.999000000
C    -0.036000000    -5.384000000     2.447000000
O     0.424000000    -6.451000000     1.727000000
C     0.110000000    -6.896000000     0.447000000
C     0.603000000    -6.232000000    -0.694000000
H     1.272000000    -5.409000000    -0.453000000
C    -0.634000000    -8.035000000     0.294000000
H    -0.837000000    -8.517000000     1.247000000
C    -0.958000000    -8.533000000    -0.981000000
H    -1.571000000    -9.431000000    -1.011000000
C    -0.503000000    -7.820000000    -2.135000000
H    -0.600000000    -8.227000000    -3.138000000
C     0.339000000    -6.633000000    -2.027000000
O     0.980000000    -6.174000000    -3.140000000
C     0.765000000    -4.981000000    -3.805000000
C     1.692000000    -4.607000000    -4.748000000
H     2.525000000    -5.265000000    -4.984000000
C     1.651000000    -3.307000000    -5.213000000
O     2.544000000    -2.786000000    -6.098000000
C     3.060000000    -1.518000000    -6.039000000
C     3.453000000    -0.894000000    -7.252000000
H     3.161000000    -1.375000000    -8.181000000
C     4.142000000     0.288000000    -7.203000000
H     4.267000000     0.832000000    -8.136000000
C     4.640000000     0.807000000    -5.957000000
H     5.162000000     1.759000000    -5.898000000
C     4.403000000     0.060000000    -4.802000000
C     3.618000000    -1.048000000    -4.812000000
H     3.419000000    -1.533000000    -3.860000000
C     1.469000000    -1.590000000     1.271000000
H     1.730000000    -1.935000000     2.268000000
C     0.483000000    -0.661000000     1.182000000
H    -0.017000000    -0.416000000     2.115000000
C     0.046000000    -0.224000000    -0.045000000
C    -1.146000000     0.705000000    -0.102000000
H    -1.717000000     0.625000000     0.826000000
H    -0.903000000     1.769000000    -0.089000000
H    -1.826000000     0.578000000    -0.946000000
C     0.698000000    -0.709000000    -1.151000000
H     0.236000000    -0.473000000    -2.107000000
C     1.647000000    -1.765000000    -1.098000000
H     2.272000000    -2.041000000    -1.943000000
C     2.085000000    -2.159000000     0.162000000
C     3.166000000    -3.241000000     0.359000000
O     3.667000000    -3.764000000    -0.656000000
O     3.419000000    -3.640000000     1.475000000
O     4.056000000    -6.351000000    -1.392000000
H     3.895000000    -5.411000000    -1.309000000
H     3.812000000    -6.712000000    -0.540000000
O     4.576000000    -1.125000000     2.575000000
H     4.078000000    -1.896000000     2.302000000
H     5.220000000    -0.997000000     1.879000000
O     6.185000000     1.215000000     3.409000000
H     6.650000000     1.049000000     2.589000000
H     5.429000000     0.629000000     3.378000000
O     7.480000000    -2.118000000     2.272000000
H     8.026000000    -2.601000000     1.652000000
H     7.987000000    -1.333000000     2.476000000
O     3.235000000    -8.140000000     3.316000000
H     3.689000000    -8.758000000     2.744000000
H     2.956000000    -7.434000000     2.732000000
O     6.268000000    -2.909000000     4.542000000
H     7.150000000    -3.143000000     4.832000000
H     6.404000000    -2.435000000     3.721000000
O     8.597000000    -1.554000000    -2.237000000
H     7.657000000    -1.688000000    -2.354000000
H     8.685000000    -0.619000000    -2.051000000
O     8.656000000    -5.392000000    -0.624000000
H     7.933000000    -5.217000000    -0.022000000
H     8.815000000    -4.553000000    -1.058000000
O     6.277000000    -4.425000000     0.951000000
H     6.432000000    -3.584000000     1.381000000
H     5.358000000    -4.392000000     0.685000000
O     4.176000000    -7.505000000    -3.891000000
H     4.268000000    -7.024000000    -3.068000000
H     3.247000000    -7.730000000    -3.934000000
O     3.143000000    -5.866000000     6.384000000
H     3.500000000    -5.422000000     5.615000000
H     3.020000000    -6.772000000     6.101000000
O     7.973000000    -6.052000000     2.939000000
H     7.340000000    -5.365000000     3.147000000
H     7.843000000    -6.711000000     3.621000000
O     7.031000000    -4.204000000    -3.065000000
H     7.045000000    -5.160000000    -3.023000000
H     7.904000000    -3.966000000    -3.378000000
O     4.073000000    -4.710000000     3.924000000
H     3.904000000    -4.374000000     3.043000000
H     4.450000000    -3.967000000     4.395000000
O     6.508000000    -7.432000000     0.879000000
H     7.127000000    -7.064000000     1.510000000
H     6.173000000    -6.673000000     0.402000000
O     5.630000000    -2.351000000    -1.734000000
H     4.817000000    -2.780000000    -1.466000000
H     6.122000000    -3.035000000    -2.187000000
O     3.609000000    -6.115000000     1.557000000
H     3.424000000    -5.198000000     1.354000000
H     4.474000000    -6.100000000     1.967000000
O     5.789000000    -0.065000000     0.174000000
H     5.042000000     0.378000000    -0.228000000
H     5.989000000    -0.786000000    -0.422000000
O     7.607000000     1.549000000     1.086000000
H     8.289000000     1.258000000     0.481000000
H     6.851000000     1.001000000     0.877000000
