218
-1464.80251
C    -0.048000000     1.454000000     5.069000000
H    -0.810000000     0.686000000     4.970000000
C    -0.115000000     2.550000000     4.198000000
C     0.891000000     3.472000000     4.228000000
H     0.825000000     4.401000000     3.667000000
C    -1.209000000     2.603000000     3.124000000
O    -2.418000000     2.061000000     3.589000000
H    -0.916000000     1.936000000     2.300000000
O    -1.411000000     3.901000000     2.658000000
C    -1.610000000     4.110000000     1.360000000
C    -0.573000000     4.415000000     0.525000000
H     0.388000000     4.468000000     1.030000000
C    -0.622000000     4.601000000    -0.877000000
O     0.541000000     4.804000000    -1.636000000
C    -1.862000000     4.386000000    -1.448000000
C    -1.962000000     4.243000000    -3.034000000
H    -2.981000000     4.498000000    -3.333000000
C    -1.670000000     2.811000000    -3.466000000
C    -2.732000000     1.910000000    -3.658000000
H    -3.711000000     2.312000000    -3.411000000
H    -1.373000000     4.998000000    -3.560000000
C    -3.005000000     4.024000000    -0.637000000
H    -3.971000000     3.933000000    -1.127000000
C    -2.829000000     3.862000000     0.773000000
C    -4.072000000     3.492000000     1.544000000
H    -4.908000000     3.891000000     0.966000000
H    -4.180000000     4.043000000     2.481000000
C    -4.076000000     1.952000000     1.814000000
C    -4.779000000     1.152000000     0.984000000
H    -5.429000000     1.630000000     0.256000000
C    -3.327000000     1.368000000     2.821000000
C    -3.442000000     0.008000000     3.089000000
H    -2.938000000    -0.470000000     3.925000000
C    -4.099000000    -0.859000000     2.175000000
O    -3.942000000    -2.196000000     2.373000000
C    -3.039000000    -2.955000000     1.569000000
C    -2.220000000    -3.942000000     2.404000000
C    -1.895000000    -5.115000000     1.734000000
H    -2.180000000    -5.282000000     0.698000000
C    -1.519000000    -3.608000000     3.587000000
H    -1.674000000    -2.628000000     4.030000000
O    -3.764000000    -3.511000000     0.407000000
H    -2.304000000    -2.299000000     1.080000000
C    -4.737000000    -0.253000000     1.083000000
C    -5.439000000    -1.134000000     0.090000000
H    -6.236000000    -0.520000000    -0.333000000
H    -6.047000000    -1.875000000     0.612000000
C    -4.641000000    -1.729000000    -1.006000000
C    -4.590000000    -1.011000000    -2.177000000
H    -5.232000000    -0.140000000    -2.280000000
C    -3.819000000    -2.841000000    -0.851000000
C    -2.876000000    -3.133000000    -1.795000000
H    -2.260000000    -4.005000000    -1.592000000
C    -2.726000000    -2.366000000    -2.915000000
O    -1.701000000    -2.649000000    -3.781000000
C    -0.549000000    -1.835000000    -3.742000000
C     0.744000000    -2.661000000    -3.784000000
C     0.885000000    -3.690000000    -2.863000000
H     0.072000000    -3.939000000    -2.185000000
C     1.903000000    -2.209000000    -4.493000000
H     1.848000000    -1.243000000    -4.988000000
O    -0.546000000    -0.888000000    -4.859000000
H    -0.595000000    -1.180000000    -2.859000000
C    -3.578000000    -1.313000000    -3.087000000
C    -3.452000000    -0.493000000    -4.445000000
H    -4.337000000     0.023000000    -4.822000000
H    -3.142000000    -1.048000000    -5.333000000
C    -2.434000000     0.632000000    -4.243000000
C    -1.052000000     0.369000000    -4.605000000
C    -0.063000000     1.336000000    -4.424000000
H     0.937000000     1.137000000    -4.802000000
C    -0.371000000     2.522000000    -3.834000000
O     0.631000000     3.430000000    -3.550000000
C     1.035000000     3.605000000    -2.227000000
H     0.527000000     2.790000000    -1.691000000
C     2.546000000     3.513000000    -1.986000000
C     3.151000000     3.914000000    -0.801000000
H     2.575000000     4.276000000     0.047000000
C     3.325000000     2.914000000    -2.970000000
H     2.828000000     2.831000000    -3.933000000
C     4.724000000     2.761000000    -2.780000000
O     5.523000000     2.133000000    -3.729000000
C     5.300000000     3.136000000    -1.572000000
H     6.362000000     3.007000000    -1.377000000
C     4.522000000     3.679000000    -0.570000000
O     5.178000000     4.233000000     0.515000000
C     4.604000000     4.881000000     1.573000000
C     4.333000000     4.211000000     2.757000000
H     4.691000000     3.187000000     2.821000000
C     4.248000000     6.200000000     1.399000000
H     4.425000000     6.667000000     0.433000000
C     3.602000000     6.911000000     2.425000000
H     3.357000000     7.964000000     2.320000000
C     3.265000000     6.180000000     3.603000000
H     2.532000000     6.650000000     4.254000000
C     3.638000000     4.844000000     3.760000000
O     3.156000000     4.081000000     4.850000000
C     2.107000000     3.166000000     4.860000000
C     2.242000000     2.054000000     5.600000000
H     3.211000000     1.836000000     6.043000000
C     1.136000000     1.218000000     5.744000000
O     1.383000000     0.070000000     6.521000000
C     0.555000000    -0.979000000     6.685000000
C     0.529000000    -2.065000000     5.776000000
H     1.125000000    -2.148000000     4.871000000
C    -0.224000000    -0.971000000     7.887000000
H    -0.132000000    -0.150000000     8.594000000
C    -1.131000000    -1.989000000     8.174000000
H    -1.858000000    -1.984000000     8.982000000
C    -1.081000000    -3.143000000     7.348000000
H    -1.707000000    -4.016000000     7.514000000
C    -0.216000000    -3.179000000     6.198000000
O    -0.268000000    -4.405000000     5.476000000
C    -0.676000000    -4.546000000     4.199000000
C    -0.383000000    -5.736000000     3.519000000
H     0.350000000    -6.422000000     3.939000000
C    -0.936000000    -6.034000000     2.268000000
O    -0.628000000    -7.205000000     1.589000000
C    -0.150000000    -7.188000000     0.300000000
C     0.861000000    -6.344000000    -0.077000000
H     1.408000000    -5.800000000     0.689000000
C    -0.743000000    -8.030000000    -0.562000000
H    -1.446000000    -8.788000000    -0.225000000
C    -0.469000000    -7.883000000    -1.937000000
H    -1.039000000    -8.459000000    -2.662000000
C     0.496000000    -6.997000000    -2.333000000
H     0.731000000    -6.791000000    -3.374000000
C     1.225000000    -6.313000000    -1.422000000
O     2.180000000    -5.391000000    -1.793000000
C     2.048000000    -4.376000000    -2.677000000
C     3.189000000    -3.865000000    -3.398000000
H     4.102000000    -4.441000000    -3.270000000
C     3.124000000    -2.769000000    -4.213000000
O     4.270000000    -2.397000000    -4.921000000
C     4.528000000    -1.092000000    -5.298000000
C     4.404000000    -0.620000000    -6.641000000
H     4.018000000    -1.305000000    -7.391000000
C     4.678000000     0.711000000    -6.929000000
H     4.579000000     0.986000000    -7.976000000
C     5.036000000     1.582000000    -5.902000000
H     5.262000000     2.621000000    -6.125000000
C     5.193000000     1.169000000    -4.594000000
C     4.959000000    -0.160000000    -4.304000000
H     5.043000000    -0.451000000    -3.260000000
C     1.751000000    -1.750000000     1.293000000
H     1.915000000    -2.354000000     2.181000000
C     0.595000000    -0.981000000     1.051000000
H    -0.056000000    -0.856000000     1.913000000
C     0.332000000    -0.348000000    -0.184000000
C    -0.966000000     0.476000000    -0.454000000
H    -1.787000000    -0.186000000    -0.169000000
H    -0.864000000     1.388000000     0.137000000
H    -1.153000000     0.657000000    -1.515000000
C     1.378000000    -0.499000000    -1.121000000
H     1.199000000    -0.123000000    -2.125000000
C     2.531000000    -1.295000000    -0.919000000
H     3.249000000    -1.315000000    -1.735000000
C     2.744000000    -1.917000000     0.305000000
C     4.003000000    -2.693000000     0.558000000
O     5.007000000    -2.674000000    -0.124000000
O     4.043000000    -3.148000000     1.660000000
O     3.454000000    -0.056000000     3.360000000
H     3.610000000    -0.981000000     3.551000000
H     2.995000000     0.274000000     4.133000000
O     4.245000000    -5.119000000     5.237000000
H     5.041000000    -5.508000000     4.875000000
H     4.040000000    -5.660000000     5.999000000
O     5.782000000    -0.335000000    -0.974000000
H     5.351000000    -1.167000000    -0.775000000
H     5.828000000     0.118000000    -0.132000000
O     6.455000000    -5.703000000     3.814000000
H     6.392000000    -6.398000000     3.159000000
H     6.346000000    -4.893000000     3.315000000
O     6.188000000    -7.153000000     1.467000000
H     5.705000000    -6.387000000     1.156000000
H     5.892000000    -7.868000000     0.904000000
O     3.586000000    -5.823000000     2.236000000
H     3.565000000    -5.531000000     3.148000000
H     3.920000000    -5.068000000     1.751000000
O     3.865000000    -2.646000000     4.457000000
H     3.944000000    -3.435000000     4.994000000
H     3.788000000    -2.973000000     3.561000000
O     3.338000000    -8.414000000     1.268000000
H     3.288000000    -7.501000000     1.552000000
H     3.514000000    -8.363000000     0.328000000
O     7.560000000    -6.289000000    -1.099000000
H     7.626000000    -6.038000000    -0.177000000
H     6.628000000    -6.458000000    -1.235000000
O     4.659000000    -8.365000000    -1.101000000
H     4.606000000    -9.138000000    -1.664000000
H     4.370000000    -7.643000000    -1.658000000
O     8.344000000     1.637000000     1.988000000
H     7.506000000     1.184000000     1.897000000
H     8.952000000     0.958000000     2.283000000
O     3.138000000     1.213000000     0.646000000
H     3.097000000     1.055000000     1.589000000
H     2.660000000     0.480000000     0.260000000
O     5.668000000     0.861000000     1.857000000
H     5.447000000     0.189000000     2.502000000
H     4.822000000     1.193000000     1.557000000
O     7.605000000    -0.596000000    -2.829000000
H     8.063000000    -1.354000000    -2.465000000
H     6.923000000    -0.397000000    -2.188000000
O     8.695000000    -5.338000000     1.411000000
H     9.149000000    -5.142000000     2.230000000
H     8.547000000    -4.483000000     1.008000000
O     6.555000000    -3.177000000     2.573000000
H     6.971000000    -3.127000000     1.713000000
H     5.641000000    -2.945000000     2.411000000
O     7.726000000    -3.082000000    -0.072000000
H     8.209000000    -2.654000000    -0.779000000
H     6.821000000    -3.110000000    -0.383000000
O     6.606000000    -5.090000000    -3.294000000
H     7.155000000    -5.033000000    -2.512000000
H     7.169000000    -4.784000000    -4.004000000
O     4.904000000    -5.398000000    -0.232000000
H     5.146000000    -4.477000000    -0.133000000
H     4.075000000    -5.378000000    -0.708000000
