218
-1452.57165
C    -0.282000000     2.520000000     4.261000000
H    -1.168000000     1.896000000     4.350000000
C    -0.026000000     3.324000000     3.164000000
C     1.154000000     4.031000000     3.103000000
H     1.418000000     4.567000000     2.195000000
C    -1.065000000     3.368000000     1.997000000
O    -2.377000000     3.154000000     2.458000000
H    -0.759000000     2.470000000     1.442000000
O    -0.988000000     4.586000000     1.305000000
C    -1.062000000     4.523000000    -0.075000000
C     0.080000000     4.587000000    -0.806000000
H     1.005000000     4.662000000    -0.239000000
C     0.053000000     4.429000000    -2.209000000
O     1.283000000     4.198000000    -2.864000000
C    -1.131000000     4.124000000    -2.862000000
C    -1.066000000     3.538000000    -4.293000000
H    -2.004000000     3.664000000    -4.839000000
C    -0.835000000     2.096000000    -4.240000000
C    -1.936000000     1.221000000    -4.407000000
H    -2.930000000     1.588000000    -4.649000000
H    -0.238000000     3.855000000    -4.931000000
C    -2.292000000     4.118000000    -2.132000000
H    -3.216000000     3.845000000    -2.635000000
C    -2.266000000     4.284000000    -0.747000000
C    -3.629000000     4.180000000    -0.063000000
H    -4.486000000     4.576000000    -0.612000000
H    -3.724000000     4.892000000     0.759000000
C    -3.875000000     2.755000000     0.491000000
C    -4.538000000     1.768000000    -0.241000000
H    -4.703000000     2.013000000    -1.287000000
C    -3.378000000     2.414000000     1.741000000
C    -3.694000000     1.239000000     2.336000000
H    -3.249000000     0.900000000     3.268000000
C    -4.388000000     0.249000000     1.561000000
O    -4.285000000    -1.094000000     2.081000000
C    -3.508000000    -2.018000000     1.294000000
C    -2.692000000    -2.838000000     2.341000000
C    -2.525000000    -4.256000000     2.121000000
H    -2.812000000    -4.738000000     1.189000000
C    -2.150000000    -2.322000000     3.532000000
H    -2.153000000    -1.252000000     3.725000000
O    -4.278000000    -2.880000000     0.467000000
H    -2.833000000    -1.401000000     0.683000000
C    -4.892000000     0.543000000     0.304000000
C    -5.547000000    -0.468000000    -0.577000000
H    -6.206000000    -0.025000000    -1.327000000
H    -6.169000000    -1.097000000     0.063000000
C    -4.607000000    -1.344000000    -1.314000000
C    -4.342000000    -0.980000000    -2.642000000
H    -4.678000000    -0.019000000    -3.025000000
C    -4.046000000    -2.531000000    -0.815000000
C    -3.108000000    -3.248000000    -1.584000000
H    -2.677000000    -4.096000000    -1.057000000
C    -2.839000000    -2.836000000    -2.893000000
O    -1.766000000    -3.444000000    -3.561000000
C    -0.452000000    -2.855000000    -3.360000000
C     0.630000000    -3.863000000    -3.051000000
C     0.427000000    -4.997000000    -2.262000000
H    -0.619000000    -5.124000000    -1.995000000
C     2.003000000    -3.518000000    -3.272000000
H     2.267000000    -2.555000000    -3.701000000
O    -0.084000000    -2.048000000    -4.473000000
H    -0.637000000    -2.228000000    -2.476000000
C    -3.451000000    -1.706000000    -3.450000000
C    -2.866000000    -1.139000000    -4.747000000
H    -3.685000000    -0.594000000    -5.222000000
H    -2.659000000    -1.931000000    -5.469000000
C    -1.724000000    -0.192000000    -4.457000000
C    -0.378000000    -0.670000000    -4.463000000
C     0.706000000     0.203000000    -4.375000000
H     1.726000000    -0.160000000    -4.471000000
C     0.486000000     1.546000000    -4.130000000
O     1.644000000     2.214000000    -3.929000000
C     1.794000000     2.907000000    -2.664000000
H     1.212000000     2.339000000    -1.923000000
C     3.243000000     2.835000000    -2.130000000
C     3.848000000     3.906000000    -1.480000000
H     3.317000000     4.854000000    -1.514000000
C     3.746000000     1.612000000    -1.957000000
H     3.291000000     0.726000000    -2.391000000
C     4.971000000     1.427000000    -1.379000000
O     5.464000000     0.192000000    -1.275000000
C     5.681000000     2.445000000    -0.849000000
H     6.693000000     2.314000000    -0.476000000
C     5.064000000     3.737000000    -0.803000000
O     5.663000000     4.796000000    -0.208000000
C     5.116000000     5.342000000     0.953000000
C     4.489000000     4.556000000     1.925000000
H     4.497000000     3.473000000     1.835000000
C     5.194000000     6.773000000     1.077000000
H     5.679000000     7.471000000     0.399000000
C     4.565000000     7.351000000     2.204000000
H     4.707000000     8.427000000     2.267000000
C     4.036000000     6.540000000     3.199000000
H     3.401000000     7.011000000     3.945000000
C     3.871000000     5.213000000     3.014000000
O     3.335000000     4.617000000     4.051000000
C     2.115000000     3.983000000     4.108000000
C     1.756000000     3.352000000     5.341000000
H     2.397000000     3.396000000     6.217000000
C     0.600000000     2.509000000     5.350000000
O     0.218000000     1.835000000     6.547000000
C    -0.764000000     0.844000000     6.551000000
C    -0.400000000    -0.439000000     6.213000000
H     0.626000000    -0.602000000     5.891000000
C    -2.063000000     1.230000000     6.950000000
H    -2.347000000     2.245000000     7.219000000
C    -3.094000000     0.275000000     6.853000000
H    -4.109000000     0.561000000     7.118000000
C    -2.715000000    -1.117000000     6.434000000
H    -3.444000000    -1.923000000     6.433000000
C    -1.397000000    -1.432000000     6.145000000
O    -1.134000000    -2.682000000     5.719000000
C    -1.540000000    -3.124000000     4.469000000
C    -1.441000000    -4.493000000     4.229000000
H    -1.061000000    -5.080000000     5.062000000
C    -1.861000000    -5.040000000     3.022000000
O    -1.763000000    -6.350000000     2.716000000
C    -1.434000000    -6.826000000     1.492000000
C    -0.200000000    -6.524000000     0.829000000
H     0.420000000    -5.741000000     1.259000000
C    -2.249000000    -7.873000000     0.947000000
H    -3.143000000    -8.185000000     1.481000000
C    -1.865000000    -8.601000000    -0.149000000
H    -2.566000000    -9.385000000    -0.423000000
C    -0.687000000    -8.202000000    -0.846000000
H    -0.433000000    -8.607000000    -1.822000000
C     0.127000000    -7.184000000    -0.404000000
O     1.260000000    -6.888000000    -1.011000000
C     1.421000000    -5.855000000    -1.883000000
C     2.711000000    -5.608000000    -2.168000000
H     3.474000000    -6.284000000    -1.790000000
C     3.013000000    -4.413000000    -2.835000000
O     4.394000000    -4.097000000    -3.203000000
C     5.056000000    -2.859000000    -3.184000000
C     5.917000000    -2.513000000    -4.270000000
H     5.973000000    -3.240000000    -5.077000000
C     6.701000000    -1.402000000    -4.240000000
H     7.443000000    -1.322000000    -5.030000000
C     6.585000000    -0.523000000    -3.197000000
H     7.177000000     0.382000000    -3.091000000
C     5.554000000    -0.723000000    -2.262000000
C     4.844000000    -1.916000000    -2.165000000
H     4.197000000    -2.165000000    -1.328000000
C     1.737000000    -1.063000000     2.858000000
H     2.094000000    -0.568000000     3.757000000
C     1.140000000    -0.213000000     1.926000000
H     1.111000000     0.862000000     2.087000000
C     0.519000000    -0.765000000     0.749000000
C    -0.144000000     0.096000000    -0.291000000
H     0.255000000     1.111000000    -0.240000000
H     0.205000000    -0.141000000    -1.298000000
H    -1.230000000     0.099000000    -0.183000000
C     0.530000000    -2.144000000     0.528000000
H     0.153000000    -2.578000000    -0.395000000
C     1.322000000    -2.894000000     1.339000000
H     1.549000000    -3.928000000     1.092000000
C     1.822000000    -2.389000000     2.488000000
C     2.491000000    -3.419000000     3.396000000
O     2.598000000    -4.645000000     3.189000000
O     3.007000000    -3.097000000     4.461000000
O     4.669000000    -0.183000000     2.291000000
H     3.827000000    -0.333000000     1.860000000
H     4.479000000     0.465000000     2.969000000
O     6.580000000    -2.052000000     1.488000000
H     5.902000000    -1.514000000     1.080000000
H     6.098000000    -2.674000000     2.033000000
O     4.016000000    -4.939000000     5.933000000
H     3.793000000    -4.286000000     5.270000000
H     3.277000000    -5.547000000     5.929000000
O     3.255000000    -7.102000000     2.035000000
H     2.888000000    -6.217000000     2.036000000
H     3.611000000    -7.214000000     2.916000000
O     1.723000000    -6.196000000     5.171000000
H     1.947000000    -5.693000000     4.388000000
H     1.148000000    -6.892000000     4.852000000
O     7.556000000    -6.174000000     3.587000000
H     7.757000000    -5.956000000     2.677000000
H     7.449000000    -5.326000000     4.019000000
O     1.880000000    -2.549000000     6.889000000
H     1.985000000    -3.272000000     7.507000000
H     1.675000000    -2.973000000     6.056000000
O     0.112000000    -7.115000000     7.191000000
H     0.650000000    -6.802000000     6.463000000
H     0.525000000    -6.746000000     7.971000000
O     4.871000000     1.890000000     4.251000000
H     4.877000000     2.823000000     4.463000000
H     4.523000000     1.468000000     5.037000000
O     1.100000000    -8.821000000     3.295000000
H     1.497000000    -8.184000000     2.701000000
H     0.847000000    -9.551000000     2.730000000
O     4.830000000    -7.190000000     7.948000000
H     4.468000000    -6.475000000     7.424000000
H     5.765000000    -6.992000000     8.008000000
O     4.964000000    -1.375000000     4.759000000
H     5.108000000    -1.119000000     3.848000000
H     4.242000000    -2.002000000     4.721000000
O     7.290000000    -0.514000000     5.962000000
H     7.767000000    -0.653000000     5.143000000
H     6.466000000    -0.985000000     5.842000000
O     7.791000000    -3.421000000     4.726000000
H     6.889000000    -3.270000000     4.444000000
H     7.815000000    -3.110000000     5.631000000
O     5.491000000    -4.131000000     2.541000000
H     4.584000000    -4.248000000     2.824000000
H     5.706000000    -4.945000000     2.086000000
O     4.948000000    -6.995000000     4.454000000
H     5.734000000    -6.849000000     3.928000000
H     4.987000000    -6.322000000     5.135000000
O     5.617000000    -6.518000000     0.859000000
H     4.695000000    -6.753000000     0.958000000
H     6.095000000    -7.284000000     1.176000000
O     4.334000000    -1.442000000     8.233000000
H     3.600000000    -1.791000000     7.727000000
H     5.051000000    -2.055000000     8.069000000
O     3.684000000     1.116000000     7.127000000
H     2.871000000     0.702000000     6.838000000
H     4.041000000     0.514000000     7.779000000
