218
-1481.44053
C    -1.540000000     0.617000000     4.567000000
H    -2.387000000     0.045000000     4.197000000
C    -1.338000000     1.880000000     4.059000000
C    -0.320000000     2.659000000     4.617000000
H     0.009000000     3.607000000     4.198000000
C    -2.131000000     2.255000000     2.798000000
O    -3.461000000     1.740000000     2.829000000
H    -1.584000000     1.689000000     2.030000000
O    -2.088000000     3.670000000     2.532000000
C    -1.784000000     4.125000000     1.256000000
C    -0.502000000     4.405000000     0.881000000
H     0.295000000     4.300000000     1.612000000
C    -0.169000000     4.687000000    -0.450000000
O     1.141000000     4.903000000    -0.755000000
C    -1.164000000     4.655000000    -1.447000000
C    -0.734000000     4.824000000    -2.899000000
H    -1.659000000     5.038000000    -3.438000000
C    -0.137000000     3.515000000    -3.445000000
C    -1.032000000     2.681000000    -4.083000000
H    -2.094000000     2.911000000    -4.076000000
H    -0.096000000     5.688000000    -3.095000000
C    -2.451000000     4.311000000    -1.067000000
H    -3.275000000     4.230000000    -1.772000000
C    -2.790000000     4.010000000     0.267000000
C    -4.228000000     3.555000000     0.535000000
H    -4.917000000     3.963000000    -0.207000000
H    -4.484000000     4.017000000     1.491000000
C    -4.303000000     2.057000000     0.552000000
C    -4.604000000     1.414000000    -0.680000000
H    -4.729000000     2.000000000    -1.587000000
C    -3.953000000     1.227000000     1.658000000
C    -4.076000000    -0.183000000     1.627000000
H    -3.878000000    -0.707000000     2.559000000
C    -4.563000000    -0.743000000     0.484000000
O    -4.586000000    -2.116000000     0.433000000
C    -3.376000000    -2.787000000    -0.142000000
C    -2.995000000    -4.046000000     0.515000000
C    -2.603000000    -5.213000000    -0.114000000
H    -2.641000000    -5.345000000    -1.192000000
C    -2.852000000    -4.007000000     1.885000000
H    -2.993000000    -3.083000000     2.440000000
O    -3.717000000    -3.092000000    -1.524000000
H    -2.539000000    -2.078000000    -0.065000000
C    -4.778000000     0.065000000    -0.720000000
C    -5.244000000    -0.591000000    -2.029000000
H    -5.918000000     0.048000000    -2.604000000
H    -5.760000000    -1.506000000    -1.732000000
C    -4.019000000    -1.075000000    -2.784000000
C    -3.452000000    -0.188000000    -3.667000000
H    -3.987000000     0.699000000    -3.997000000
C    -3.313000000    -2.196000000    -2.380000000
C    -2.197000000    -2.529000000    -3.120000000
H    -1.722000000    -3.496000000    -2.977000000
C    -1.593000000    -1.661000000    -4.016000000
O    -0.315000000    -1.962000000    -4.427000000
C     0.765000000    -1.204000000    -3.913000000
C     1.911000000    -2.176000000    -3.521000000
C     1.618000000    -3.315000000    -2.737000000
H     0.604000000    -3.508000000    -2.397000000
C     3.231000000    -1.892000000    -3.767000000
H     3.458000000    -0.976000000    -4.307000000
O     1.173000000    -0.178000000    -4.828000000
H     0.401000000    -0.756000000    -2.977000000
C    -2.252000000    -0.450000000    -4.356000000
C    -1.697000000     0.593000000    -5.279000000
H    -2.488000000     1.212000000    -5.707000000
H    -1.408000000     0.034000000    -6.171000000
C    -0.649000000     1.453000000    -4.616000000
C     0.721000000     1.116000000    -4.597000000
C     1.673000000     1.943000000    -3.981000000
H     2.692000000     1.604000000    -3.814000000
C     1.237000000     3.143000000    -3.352000000
O     2.083000000     3.930000000    -2.576000000
C     1.846000000     3.782000000    -1.130000000
H     1.269000000     2.856000000    -0.991000000
C     3.187000000     3.614000000    -0.353000000
C     3.392000000     4.253000000     0.827000000
H     2.611000000     4.921000000     1.181000000
C     4.133000000     2.669000000    -0.803000000
H     3.821000000     2.086000000    -1.666000000
C     5.327000000     2.415000000    -0.095000000
O     6.258000000     1.546000000    -0.543000000
C     5.356000000     2.944000000     1.183000000
H     6.255000000     2.698000000     1.743000000
C     4.446000000     3.892000000     1.648000000
O     4.670000000     4.452000000     2.906000000
C     3.722000000     4.679000000     3.892000000
C     3.029000000     3.735000000     4.558000000
H     3.139000000     2.722000000     4.179000000
C     3.524000000     6.066000000     4.358000000
H     4.032000000     6.943000000     3.965000000
C     2.600000000     6.411000000     5.353000000
H     2.361000000     7.385000000     5.772000000
C     1.914000000     5.342000000     5.980000000
H     1.183000000     5.515000000     6.766000000
C     2.160000000     4.023000000     5.602000000
O     1.492000000     3.034000000     6.258000000
C     0.572000000     2.180000000     5.602000000
C     0.396000000     0.927000000     6.080000000
H     1.035000000     0.516000000     6.857000000
C    -0.647000000     0.179000000     5.577000000
O    -0.693000000    -1.125000000     6.139000000
C    -1.715000000    -1.991000000     5.872000000
C    -1.423000000    -3.101000000     5.139000000
H    -0.428000000    -3.318000000     4.760000000
C    -3.018000000    -1.733000000     6.281000000
H    -3.234000000    -0.971000000     7.026000000
C    -4.035000000    -2.572000000     5.926000000
H    -5.055000000    -2.233000000     6.086000000
C    -3.729000000    -3.710000000     5.179000000
H    -4.440000000    -4.527000000     5.085000000
C    -2.403000000    -3.947000000     4.796000000
O    -2.108000000    -5.022000000     3.981000000
C    -2.283000000    -5.022000000     2.642000000
C    -2.025000000    -6.215000000     2.060000000
H    -1.524000000    -7.006000000     2.612000000
C    -2.052000000    -6.275000000     0.630000000
O    -1.637000000    -7.410000000    -0.011000000
C    -0.676000000    -7.223000000    -0.967000000
C     0.396000000    -6.269000000    -0.808000000
H     0.440000000    -5.644000000     0.081000000
C    -0.692000000    -8.103000000    -2.058000000
H    -1.557000000    -8.756000000    -2.137000000
C     0.283000000    -7.909000000    -2.970000000
H     0.264000000    -8.519000000    -3.870000000
C     1.221000000    -6.909000000    -2.924000000
H     1.963000000    -6.862000000    -3.717000000
C     1.367000000    -6.115000000    -1.812000000
O     2.407000000    -5.210000000    -1.638000000
C     2.629000000    -4.128000000    -2.362000000
C     3.964000000    -3.823000000    -2.623000000
H     4.763000000    -4.349000000    -2.107000000
C     4.291000000    -2.615000000    -3.231000000
O     5.605000000    -2.231000000    -3.449000000
C     6.042000000    -0.917000000    -3.232000000
C     6.447000000    -0.175000000    -4.326000000
H     6.498000000    -0.700000000    -5.276000000
C     6.827000000     1.162000000    -4.207000000
H     7.196000000     1.723000000    -5.062000000
C     6.768000000     1.790000000    -2.932000000
H     7.058000000     2.831000000    -2.815000000
C     6.204000000     1.074000000    -1.885000000
C     5.910000000    -0.254000000    -2.013000000
H     5.680000000    -0.879000000    -1.154000000
C     0.988000000    -1.577000000     1.632000000
H     0.827000000    -2.221000000     2.493000000
C    -0.019000000    -0.928000000     1.009000000
H    -1.009000000    -1.010000000     1.450000000
C     0.077000000    -0.113000000    -0.090000000
C    -1.097000000     0.592000000    -0.667000000
H    -1.230000000     1.576000000    -0.211000000
H    -0.943000000     0.629000000    -1.747000000
H    -1.976000000    -0.054000000    -0.631000000
C     1.332000000     0.020000000    -0.637000000
H     1.588000000     0.555000000    -1.548000000
C     2.422000000    -0.691000000    -0.084000000
H     3.400000000    -0.626000000    -0.554000000
C     2.228000000    -1.545000000     1.037000000
C     3.446000000    -2.093000000     1.671000000
O     4.522000000    -2.239000000     1.113000000
O     3.353000000    -2.565000000     2.799000000
O     5.307000000     0.863000000     5.910000000
H     5.747000000     1.419000000     5.267000000
H     4.556000000     0.502000000     5.439000000
O     5.646000000    -0.232000000     2.597000000
H     4.899000000     0.361000000     2.672000000
H     5.259000000    -1.079000000     2.375000000
O     8.723000000    -4.271000000     2.810000000
H     9.018000000    -3.567000000     3.388000000
H     8.077000000    -3.856000000     2.238000000
O     4.060000000    -5.236000000     0.615000000
H     3.316000000    -5.103000000     0.027000000
H     4.497000000    -4.385000000     0.644000000
O     4.140000000    -7.626000000    -1.050000000
H     4.737000000    -7.200000000    -1.664000000
H     4.050000000    -7.001000000    -0.330000000
O     2.673000000    -1.435000000     8.524000000
H     2.959000000    -1.703000000     7.650000000
H     2.477000000    -2.257000000     8.974000000
O     1.333000000    -4.442000000     3.691000000
H     1.356000000    -5.189000000     3.092000000
H     2.046000000    -3.877000000     3.396000000
O     7.371000000    -1.924000000     4.611000000
H     7.854000000    -1.510000000     3.896000000
H     6.647000000    -2.379000000     4.180000000
O     5.412000000    -3.675000000     3.789000000
H     4.580000000    -3.284000000     3.522000000
H     5.762000000    -4.065000000     2.988000000
O     3.435000000    -2.793000000     6.293000000
H     3.488000000    -3.736000000     6.449000000
H     3.552000000    -2.700000000     5.347000000
O     5.649000000    -5.293000000     6.056000000
H     6.557000000    -5.038000000     6.219000000
H     5.493000000    -5.054000000     5.142000000
O     2.110000000    -6.625000000     2.221000000
H     2.308000000    -7.561000000     2.212000000
H     2.885000000    -6.213000000     1.839000000
O     7.062000000    -2.747000000     1.203000000
H     6.127000000    -2.584000000     1.329000000
H     7.365000000    -2.004000000     0.680000000
O     0.307000000    -6.422000000     5.767000000
H     1.024000000    -6.280000000     6.386000000
H     0.400000000    -5.716000000     5.127000000
O     8.391000000    -0.065000000     3.143000000
H     8.835000000     0.305000000     2.380000000
H     7.467000000     0.144000000     3.006000000
O     6.897000000    -1.119000000     7.250000000
H     6.447000000    -0.280000000     7.351000000
H     6.963000000    -1.243000000     6.303000000
O     3.154000000    -0.612000000     4.459000000
H     2.333000000    -0.808000000     4.910000000
H     3.259000000    -1.326000000     3.830000000
O     6.297000000    -6.749000000    -2.370000000
H     7.062000000    -7.324000000    -2.376000000
H     6.595000000    -5.960000000    -1.918000000
O     7.195000000    -4.111000000    -1.501000000
H     7.367000000    -3.838000000    -0.600000000
H     7.199000000    -3.297000000    -2.003000000
