218
-1462.87899
C    -2.437000000    -3.467000000    -3.137000000
H    -2.651000000    -2.731000000    -3.908000000
C    -3.054000000    -3.290000000    -1.882000000
C    -2.921000000    -4.212000000    -0.881000000
H    -3.286000000    -4.041000000     0.128000000
C    -3.583000000    -1.868000000    -1.682000000
O    -3.741000000    -1.015000000    -2.884000000
H    -2.702000000    -1.482000000    -1.149000000
O    -4.755000000    -1.852000000    -0.855000000
C    -4.692000000    -0.969000000     0.183000000
C    -4.321000000    -1.444000000     1.435000000
H    -4.253000000    -2.503000000     1.670000000
C    -3.972000000    -0.609000000     2.452000000
O    -3.377000000    -1.027000000     3.633000000
C    -4.281000000     0.780000000     2.297000000
C    -4.031000000     1.757000000     3.422000000
H    -4.686000000     2.631000000     3.383000000
C    -2.642000000     2.297000000     3.494000000
C    -2.316000000     3.437000000     2.778000000
H    -3.106000000     3.950000000     2.234000000
H    -4.307000000     1.302000000     4.375000000
C    -4.729000000     1.319000000     1.077000000
H    -4.852000000     2.391000000     0.951000000
C    -4.927000000     0.423000000     0.005000000
C    -5.379000000     0.911000000    -1.376000000
H    -5.929000000     1.851000000    -1.299000000
H    -5.949000000     0.178000000    -1.951000000
C    -4.082000000     1.288000000    -2.126000000
C    -3.620000000     2.613000000    -2.134000000
H    -4.167000000     3.403000000    -1.624000000
C    -3.411000000     0.316000000    -2.842000000
C    -2.319000000     0.639000000    -3.609000000
H    -1.773000000    -0.105000000    -4.184000000
C    -1.808000000     1.893000000    -3.551000000
O    -0.617000000     2.014000000    -4.229000000
C     0.542000000     2.224000000    -3.412000000
C     1.724000000     1.521000000    -4.066000000
C     2.985000000     2.074000000    -3.891000000
H     3.219000000     2.963000000    -3.310000000
C     1.549000000     0.359000000    -4.812000000
H     0.556000000    -0.030000000    -5.020000000
O     0.866000000     3.614000000    -3.323000000
H     0.440000000     1.686000000    -2.458000000
C    -2.432000000     2.948000000    -2.822000000
C    -1.867000000     4.348000000    -2.924000000
H    -2.710000000     5.042000000    -2.914000000
H    -1.470000000     4.488000000    -3.932000000
C    -0.801000000     4.579000000    -1.911000000
C    -1.158000000     4.821000000    -0.588000000
H    -2.180000000     4.940000000    -0.236000000
C     0.505000000     4.285000000    -2.172000000
C     1.498000000     4.345000000    -1.246000000
H     2.520000000     4.019000000    -1.423000000
C     1.134000000     4.669000000     0.103000000
O     2.006000000     4.487000000     1.071000000
C     1.977000000     3.152000000     1.702000000
C     3.358000000     2.499000000     1.846000000
C     4.371000000     2.806000000     0.908000000
H     4.164000000     3.607000000     0.203000000
C     3.555000000     1.340000000     2.556000000
H     2.753000000     0.940000000     3.171000000
O     1.328000000     3.301000000     2.973000000
H     1.410000000     2.460000000     1.062000000
C    -0.211000000     4.943000000     0.430000000
C    -0.592000000     5.188000000     1.873000000
H    -1.430000000     5.881000000     1.773000000
H     0.247000000     5.671000000     2.379000000
C    -0.999000000     3.931000000     2.615000000
C     0.010000000     3.112000000     3.209000000
C    -0.255000000     2.064000000     4.061000000
H     0.556000000     1.500000000     4.515000000
C    -1.607000000     1.564000000     4.085000000
O    -1.814000000     0.353000000     4.661000000
C    -1.979000000    -0.873000000     3.849000000
H    -1.640000000    -0.708000000     2.815000000
C    -1.266000000    -2.127000000     4.370000000
C    -1.775000000    -3.403000000     4.198000000
H    -2.705000000    -3.531000000     3.650000000
C    -0.003000000    -2.028000000     4.991000000
H     0.388000000    -1.050000000     5.263000000
C     0.719000000    -3.161000000     5.327000000
O     1.921000000    -3.067000000     5.969000000
C     0.194000000    -4.439000000     5.169000000
H     0.548000000    -5.388000000     5.563000000
C    -1.037000000    -4.494000000     4.539000000
O    -1.512000000    -5.836000000     4.327000000
C    -2.324000000    -6.183000000     3.235000000
C    -1.915000000    -5.988000000     1.912000000
H    -0.941000000    -5.610000000     1.612000000
C    -3.628000000    -6.684000000     3.493000000
H    -4.034000000    -6.781000000     4.497000000
C    -4.428000000    -7.238000000     2.458000000
H    -5.374000000    -7.720000000     2.692000000
C    -3.997000000    -7.064000000     1.128000000
H    -4.633000000    -7.356000000     0.297000000
C    -2.779000000    -6.401000000     0.884000000
O    -2.328000000    -6.480000000    -0.338000000
C    -2.365000000    -5.439000000    -1.194000000
C    -1.647000000    -5.606000000    -2.424000000
H    -1.001000000    -6.471000000    -2.546000000
C    -1.740000000    -4.604000000    -3.414000000
O    -0.908000000    -4.646000000    -4.519000000
C    -0.504000000    -3.580000000    -5.289000000
C     0.799000000    -3.205000000    -5.363000000
H     1.555000000    -3.683000000    -4.746000000
C    -1.328000000    -2.955000000    -6.219000000
H    -2.285000000    -3.465000000    -6.282000000
C    -0.922000000    -2.024000000    -7.136000000
H    -1.515000000    -1.455000000    -7.848000000
C     0.347000000    -1.539000000    -7.038000000
H     0.690000000    -0.684000000    -7.614000000
C     1.290000000    -2.132000000    -6.219000000
O     2.504000000    -1.520000000    -6.057000000
C     2.659000000    -0.389000000    -5.269000000
C     3.955000000     0.206000000    -5.105000000
H     4.747000000    -0.317000000    -5.634000000
C     4.058000000     1.428000000    -4.506000000
O     5.272000000     2.069000000    -4.500000000
C     5.809000000     2.782000000    -3.500000000
C     5.983000000     2.199000000    -2.224000000
H     5.746000000     1.149000000    -2.070000000
C     6.113000000     4.097000000    -3.759000000
H     5.936000000     4.534000000    -4.739000000
C     6.651000000     4.949000000    -2.772000000
H     7.040000000     5.954000000    -2.910000000
C     6.887000000     4.394000000    -1.499000000
H     7.403000000     4.935000000    -0.710000000
C     6.497000000     3.098000000    -1.229000000
O     6.699000000     2.608000000     0.046000000
C     5.692000000     2.252000000     0.958000000
C     5.835000000     1.147000000     1.821000000
H     6.803000000     0.677000000     1.973000000
C     4.754000000     0.655000000     2.533000000
O     4.858000000    -0.487000000     3.235000000
C     4.202000000    -0.647000000     4.443000000
C     4.441000000     0.261000000     5.565000000
H     5.115000000     1.094000000     5.385000000
C     3.998000000    -0.100000000     6.796000000
H     4.149000000     0.427000000     7.735000000
C     3.200000000    -1.239000000     6.944000000
H     2.685000000    -1.531000000     7.856000000
C     2.789000000    -2.012000000     5.832000000
C     3.361000000    -1.737000000     4.606000000
H     3.207000000    -2.354000000     3.725000000
C     0.639000000    -2.957000000    -1.339000000
H     0.677000000    -3.436000000    -2.314000000
C     0.173000000    -1.639000000    -1.310000000
H    -0.315000000    -1.172000000    -2.162000000
C     0.187000000    -0.916000000    -0.145000000
C    -0.387000000     0.432000000    -0.087000000
H     0.418000000     1.161000000    -0.204000000
H    -1.205000000     0.622000000    -0.785000000
H    -0.755000000     0.672000000     0.912000000
C     0.585000000    -1.575000000     1.039000000
H     0.557000000    -1.051000000     1.991000000
C     1.069000000    -2.923000000     1.007000000
H     1.401000000    -3.366000000     1.943000000
C     1.144000000    -3.631000000    -0.164000000
C     1.541000000    -5.077000000    -0.202000000
O     2.115000000    -5.536000000     0.761000000
O     1.405000000    -5.728000000    -1.200000000
O     2.862000000    -6.039000000     4.666000000
H     2.397000000    -6.510000000     3.974000000
H     2.489000000    -6.380000000     5.479000000
O     3.755000000    -1.577000000     0.411000000
H     2.853000000    -1.567000000     0.731000000
H     4.080000000    -0.693000000     0.582000000
O     3.697000000    -6.096000000    -5.030000000
H     4.448000000    -6.364000000    -5.560000000
H     3.462000000    -6.880000000    -4.534000000
O     4.014000000    -4.899000000     2.533000000
H     3.313000000    -5.047000000     1.898000000
H     3.696000000    -5.303000000     3.340000000
O     5.976000000    -3.083000000     1.544000000
H     5.491000000    -2.345000000     1.174000000
H     5.315000000    -3.595000000     2.009000000
O     3.112000000    -4.422000000    -2.950000000
H     3.046000000    -5.078000000    -3.644000000
H     2.497000000    -4.720000000    -2.280000000
O     1.057000000   -10.714000000    -1.448000000
H     0.872000000    -9.819000000    -1.162000000
H     0.207000000   -11.059000000    -1.720000000
O     4.254000000    -2.095000000    -2.398000000
H     3.949000000    -2.060000000    -1.491000000
H     3.726000000    -2.784000000    -2.802000000
O    -1.918000000    -9.485000000    -0.322000000
H    -2.488000000    -9.518000000     0.446000000
H    -1.504000000   -10.348000000    -0.350000000
O     0.316000000    -8.178000000    -1.680000000
H    -0.442000000    -8.287000000    -1.106000000
H     0.661000000    -7.313000000    -1.461000000
O     1.980000000    -7.547000000     2.615000000
H     2.562000000    -8.205000000     2.235000000
H     2.022000000    -6.810000000     2.006000000
O    -0.099000000    -9.536000000     2.748000000
H     0.379000000    -8.896000000     2.221000000
H    -0.113000000    -9.161000000     3.628000000
O     3.516000000    -9.276000000     1.488000000
H     3.115000000   -10.099000000     1.209000000
H     4.458000000    -9.430000000     1.411000000
O    -0.560000000    -9.055000000    -4.176000000
H    -1.397000000    -9.498000000    -4.036000000
H    -0.307000000    -8.742000000    -3.308000000
O     3.260000000    -7.733000000    -0.939000000
H     3.179000000    -8.150000000    -0.082000000
H     2.626000000    -7.016000000    -0.918000000
O     6.343000000    -4.556000000    -1.661000000
H     6.659000000    -4.736000000    -0.776000000
H     5.510000000    -4.104000000    -1.532000000
O     3.731000000   -10.417000000    -2.002000000
H     2.777000000   -10.479000000    -2.036000000
H     3.914000000    -9.482000000    -2.092000000
O     5.880000000    -7.264000000    -2.245000000
H     5.139000000    -7.609000000    -1.746000000
H     6.165000000    -6.497000000    -1.749000000
O     2.548000000    -8.070000000    -3.692000000
H     1.765000000    -8.600000000    -3.844000000
H     2.418000000    -7.696000000    -2.821000000
