218
-1461.11233
C     0.961000000     2.692000000     4.240000000
H    -0.090000000     2.479000000     4.417000000
C     1.308000000     3.257000000     2.998000000
C     2.689000000     3.568000000     2.872000000
H     2.985000000     4.081000000     1.961000000
C     0.296000000     3.542000000     2.011000000
O    -0.992000000     3.907000000     2.576000000
H     0.341000000     2.563000000     1.511000000
O     0.739000000     4.569000000     1.129000000
C     0.528000000     4.406000000    -0.247000000
C     1.611000000     3.929000000    -1.026000000
H     2.564000000     3.742000000    -0.536000000
C     1.429000000     3.788000000    -2.405000000
O     2.481000000     3.156000000    -3.085000000
C     0.171000000     4.032000000    -3.039000000
C    -0.119000000     3.593000000    -4.458000000
H    -1.009000000     4.126000000    -4.799000000
C    -0.345000000     2.070000000    -4.537000000
C    -1.682000000     1.665000000    -4.493000000
H    -2.422000000     2.459000000    -4.547000000
H     0.740000000     3.950000000    -5.030000000
C    -0.896000000     4.453000000    -2.223000000
H    -1.913000000     4.564000000    -2.589000000
C    -0.727000000     4.711000000    -0.847000000
C    -1.834000000     5.247000000     0.090000000
H    -2.581000000     5.866000000    -0.409000000
H    -1.350000000     5.902000000     0.818000000
C    -2.604000000     4.083000000     0.723000000
C    -3.684000000     3.472000000     0.028000000
H    -4.090000000     3.773000000    -0.934000000
C    -2.099000000     3.528000000     1.927000000
C    -2.681000000     2.423000000     2.453000000
H    -2.278000000     2.009000000     3.374000000
C    -3.762000000     1.874000000     1.878000000
O    -4.302000000     0.722000000     2.429000000
C    -3.887000000    -0.521000000     1.949000000
C    -3.731000000    -1.420000000     3.194000000
C    -3.913000000    -2.802000000     3.028000000
H    -4.402000000    -3.215000000     2.150000000
C    -3.175000000    -0.930000000     4.367000000
H    -3.011000000     0.142000000     4.455000000
O    -4.929000000    -0.967000000     1.054000000
H    -2.916000000    -0.452000000     1.437000000
C    -4.291000000     2.342000000     0.625000000
C    -5.409000000     1.618000000    -0.042000000
H    -5.942000000     2.360000000    -0.639000000
H    -6.048000000     1.298000000     0.784000000
C    -4.876000000     0.442000000    -0.833000000
C    -4.410000000     0.641000000    -2.095000000
H    -4.458000000     1.605000000    -2.596000000
C    -4.659000000    -0.764000000    -0.294000000
C    -4.031000000    -1.777000000    -0.972000000
H    -3.822000000    -2.769000000    -0.581000000
C    -3.613000000    -1.583000000    -2.213000000
O    -2.950000000    -2.634000000    -2.787000000
C    -1.511000000    -2.444000000    -2.920000000
C    -0.654000000    -3.560000000    -2.525000000
C    -0.975000000    -4.231000000    -1.342000000
H    -1.814000000    -3.950000000    -0.710000000
C     0.435000000    -3.986000000    -3.243000000
H     0.730000000    -3.513000000    -4.176000000
O    -1.343000000    -1.922000000    -4.266000000
H    -1.248000000    -1.626000000    -2.232000000
C    -3.879000000    -0.393000000    -2.906000000
C    -3.524000000    -0.007000000    -4.355000000
H    -4.091000000     0.901000000    -4.565000000
H    -3.922000000    -0.773000000    -5.024000000
C    -2.079000000     0.313000000    -4.529000000
C    -1.050000000    -0.633000000    -4.530000000
C     0.284000000    -0.227000000    -4.704000000
H     1.019000000    -1.010000000    -4.531000000
C     0.642000000     1.124000000    -4.709000000
O     1.966000000     1.426000000    -4.608000000
C     2.443000000     1.746000000    -3.292000000
H     1.656000000     1.294000000    -2.671000000
C     3.667000000     1.004000000    -2.932000000
C     4.356000000     1.367000000    -1.785000000
H     4.131000000     2.282000000    -1.242000000
C     4.072000000    -0.154000000    -3.613000000
H     3.534000000    -0.628000000    -4.430000000
C     5.088000000    -0.997000000    -3.068000000
O     5.590000000    -1.999000000    -3.814000000
C     5.739000000    -0.610000000    -1.920000000
H     6.592000000    -1.168000000    -1.542000000
C     5.349000000     0.578000000    -1.316000000
O     5.984000000     0.775000000    -0.077000000
C     6.014000000     2.072000000     0.437000000
C     5.357000000     2.260000000     1.629000000
H     4.803000000     1.397000000     1.991000000
C     6.816000000     3.081000000    -0.084000000
H     7.410000000     2.873000000    -0.970000000
C     6.981000000     4.255000000     0.633000000
H     7.672000000     4.955000000     0.170000000
C     6.408000000     4.387000000     1.885000000
H     6.444000000     5.280000000     2.504000000
C     5.608000000     3.370000000     2.385000000
O     4.977000000     3.572000000     3.614000000
C     3.632000000     3.268000000     3.807000000
C     3.218000000     2.771000000     5.021000000
H     3.977000000     2.548000000     5.766000000
C     1.926000000     2.462000000     5.289000000
O     1.436000000     1.946000000     6.527000000
C     0.089000000     1.640000000     6.742000000
C    -0.391000000     0.350000000     6.642000000
H     0.242000000    -0.456000000     6.280000000
C    -0.839000000     2.693000000     7.054000000
H    -0.510000000     3.717000000     7.213000000
C    -2.189000000     2.367000000     7.162000000
H    -2.847000000     3.212000000     7.348000000
C    -2.641000000     1.121000000     6.934000000
H    -3.707000000     0.912000000     6.905000000
C    -1.722000000     0.045000000     6.720000000
O    -2.117000000    -1.260000000     6.505000000
C    -2.809000000    -1.756000000     5.414000000
C    -3.043000000    -3.160000000     5.271000000
H    -2.745000000    -3.806000000     6.092000000
C    -3.578000000    -3.709000000     4.072000000
O    -3.538000000    -5.084000000     3.922000000
C    -3.237000000    -5.554000000     2.725000000
C    -1.943000000    -5.364000000     2.168000000
H    -1.170000000    -4.876000000     2.755000000
C    -4.185000000    -6.301000000     2.024000000
H    -5.139000000    -6.355000000     2.543000000
C    -3.919000000    -6.825000000     0.741000000
H    -4.688000000    -7.389000000     0.221000000
C    -2.627000000    -6.682000000     0.261000000
H    -2.400000000    -7.171000000    -0.683000000
C    -1.635000000    -5.947000000     0.892000000
O    -0.450000000    -5.797000000     0.307000000
C    -0.222000000    -5.314000000    -0.918000000
C     0.839000000    -5.765000000    -1.679000000
H     1.535000000    -6.535000000    -1.356000000
C     1.166000000    -5.077000000    -2.841000000
O     2.252000000    -5.503000000    -3.524000000
C     3.312000000    -4.836000000    -4.124000000
C     3.840000000    -5.564000000    -5.184000000
H     3.461000000    -6.573000000    -5.330000000
C     4.995000000    -5.009000000    -5.841000000
H     5.482000000    -5.498000000    -6.681000000
C     5.593000000    -3.852000000    -5.340000000
H     6.395000000    -3.423000000    -5.935000000
C     4.997000000    -3.135000000    -4.305000000
C     3.859000000    -3.618000000    -3.639000000
H     3.444000000    -3.199000000    -2.726000000
C     2.658000000    -1.126000000     0.042000000
H     3.317000000    -1.574000000    -0.698000000
C     1.480000000    -0.566000000    -0.462000000
H     1.302000000    -0.691000000    -1.527000000
C     0.595000000     0.096000000     0.378000000
C    -0.746000000     0.490000000    -0.108000000
H    -1.233000000    -0.432000000    -0.435000000
H    -1.385000000     0.986000000     0.626000000
H    -0.721000000     1.113000000    -1.004000000
C     0.813000000     0.121000000     1.713000000
H     0.169000000     0.535000000     2.485000000
C     2.018000000    -0.390000000     2.191000000
H     2.299000000    -0.246000000     3.231000000
C     2.894000000    -1.130000000     1.394000000
C     4.162000000    -1.628000000     1.966000000
O     4.447000000    -1.181000000     3.077000000
O     4.624000000    -2.636000000     1.506000000
O     6.525000000    -6.220000000    -1.443000000
H     7.440000000    -6.000000000    -1.619000000
H     6.171000000    -5.444000000    -1.009000000
O     9.555000000    -3.877000000     4.550000000
H     9.351000000    -3.007000000     4.208000000
H    10.431000000    -4.068000000     4.213000000
O     7.100000000    -5.236000000     1.941000000
H     6.917000000    -4.662000000     1.198000000
H     6.972000000    -4.681000000     2.710000000
O     9.562000000    -1.198000000     3.283000000
H     8.606000000    -1.165000000     3.258000000
H     9.837000000    -0.293000000     3.133000000
O     5.046000000    -0.678000000     7.396000000
H     4.317000000    -0.841000000     6.798000000
H     5.749000000    -0.352000000     6.835000000
O     9.265000000    -4.958000000    -0.796000000
H    10.188000000    -4.748000000    -0.656000000
H     8.861000000    -4.850000000     0.065000000
O     1.128000000    -2.954000000     5.397000000
H     0.967000000    -3.172000000     4.479000000
H     0.317000000    -3.195000000     5.846000000
O     6.002000000    -3.738000000    -0.378000000
H     5.497000000    -3.249000000     0.272000000
H     6.055000000    -3.150000000    -1.132000000
O     5.807000000    -4.328000000     4.383000000
H     5.569000000    -5.253000000     4.443000000
H     4.970000000    -3.868000000     4.323000000
O    10.369000000    -1.651000000    -1.020000000
H     9.501000000    -1.333000000    -0.770000000
H    10.520000000    -2.406000000    -0.450000000
O     4.627000000    -7.436000000     0.440000000
H     4.095000000    -7.889000000    -0.214000000
H     5.350000000    -7.057000000    -0.060000000
O     3.668000000    -5.010000000     2.510000000
H     4.076000000    -4.213000000     2.171000000
H     3.941000000    -5.696000000     1.902000000
O     3.429000000    -4.314000000     6.368000000
H     4.066000000    -3.655000000     6.642000000
H     2.644000000    -3.812000000     6.148000000
O     0.918000000    -6.752000000     2.794000000
H     0.775000000    -5.859000000     2.479000000
H     0.577000000    -7.309000000     2.095000000
O     1.344000000    -3.784000000     2.646000000
H     2.244000000    -3.888000000     2.955000000
H     1.422000000    -3.254000000     1.853000000
O     3.166000000    -0.862000000     5.503000000
H     2.466000000    -1.515000000     5.494000000
H     3.512000000    -0.870000000     4.611000000
O     7.005000000    -1.900000000     3.534000000
H     6.837000000    -2.461000000     4.291000000
H     6.141000000    -1.578000000     3.277000000
O     8.086000000    -1.545000000     0.419000000
H     7.328000000    -1.141000000     0.840000000
H     8.603000000    -1.898000000     1.143000000
O     4.812000000    -6.959000000     4.472000000
H     4.945000000    -7.881000000     4.695000000
H     4.512000000    -6.973000000     3.563000000
