218
-1465.18579
C     1.469000000     3.499000000     3.686000000
H     0.460000000     3.856000000     3.876000000
C     2.050000000     3.601000000     2.412000000
C     3.376000000     3.178000000     2.229000000
H     3.939000000     3.215000000     1.301000000
C     1.213000000     4.048000000     1.254000000
O     0.029000000     4.841000000     1.590000000
H     0.814000000     3.130000000     0.798000000
O     1.955000000     4.651000000     0.150000000
C     1.782000000     4.047000000    -1.043000000
C     2.649000000     3.107000000    -1.506000000
H     3.432000000     2.779000000    -0.827000000
C     2.514000000     2.668000000    -2.786000000
O     3.420000000     1.721000000    -3.167000000
C     1.486000000     3.088000000    -3.658000000
C     1.229000000     2.385000000    -5.033000000
H     0.628000000     3.057000000    -5.648000000
C     0.509000000     1.068000000    -4.712000000
C    -0.967000000     0.986000000    -4.774000000
H    -1.552000000     1.896000000    -4.881000000
H     2.177000000     2.310000000    -5.569000000
C     0.464000000     3.940000000    -3.089000000
H    -0.469000000     4.150000000    -3.605000000
C     0.701000000     4.469000000    -1.827000000
C    -0.370000000     5.402000000    -1.194000000
H    -0.842000000     5.915000000    -2.035000000
H     0.155000000     6.190000000    -0.650000000
C    -1.357000000     4.744000000    -0.228000000
C    -2.485000000     4.182000000    -0.794000000
H    -2.544000000     4.225000000    -1.878000000
C    -1.146000000     4.569000000     1.130000000
C    -2.113000000     3.851000000     1.929000000
H    -2.006000000     3.703000000     3.000000000
C    -3.293000000     3.354000000     1.370000000
O    -4.109000000     2.496000000     2.087000000
C    -3.920000000     1.067000000     1.837000000
C    -3.885000000     0.285000000     3.155000000
C    -4.594000000    -0.942000000     3.288000000
H    -5.091000000    -1.355000000     2.414000000
C    -3.115000000     0.620000000     4.246000000
H    -2.556000000     1.524000000     4.014000000
O    -4.880000000     0.580000000     0.914000000
H    -2.929000000     0.959000000     1.371000000
C    -3.421000000     3.448000000    -0.047000000
C    -4.658000000     2.944000000    -0.802000000
H    -4.831000000     3.603000000    -1.655000000
H    -5.564000000     2.866000000    -0.196000000
C    -4.491000000     1.470000000    -1.319000000
C    -4.126000000     1.283000000    -2.626000000
H    -4.100000000     2.114000000    -3.327000000
C    -4.612000000     0.393000000    -0.430000000
C    -4.417000000    -0.899000000    -0.808000000
H    -4.570000000    -1.700000000    -0.089000000
C    -3.943000000    -1.085000000    -2.129000000
O    -3.452000000    -2.316000000    -2.440000000
C    -2.048000000    -2.575000000    -2.457000000
C    -1.696000000    -3.880000000    -1.858000000
C    -2.396000000    -4.284000000    -0.777000000
H    -3.120000000    -3.661000000    -0.258000000
C    -0.721000000    -4.702000000    -2.426000000
H    -0.256000000    -4.427000000    -3.369000000
O    -1.524000000    -2.569000000    -3.842000000
H    -1.608000000    -1.754000000    -1.871000000
C    -3.764000000     0.003000000    -3.061000000
C    -3.142000000    -0.238000000    -4.449000000
H    -3.610000000     0.493000000    -5.112000000
H    -3.511000000    -1.215000000    -4.770000000
C    -1.657000000    -0.184000000    -4.446000000
C    -0.917000000    -1.402000000    -4.237000000
C     0.457000000    -1.369000000    -4.228000000
H     1.028000000    -2.267000000    -4.007000000
C     1.199000000    -0.144000000    -4.385000000
O     2.510000000    -0.161000000    -4.222000000
C     3.024000000     0.297000000    -2.966000000
H     2.176000000     0.323000000    -2.267000000
C     4.113000000    -0.596000000    -2.511000000
C     5.246000000    -0.084000000    -1.795000000
H     5.381000000     0.971000000    -1.569000000
C     3.977000000    -2.021000000    -2.647000000
H     3.086000000    -2.395000000    -3.146000000
C     4.961000000    -2.850000000    -2.114000000
O     4.995000000    -4.150000000    -2.484000000
C     6.103000000    -2.298000000    -1.484000000
H     6.955000000    -2.938000000    -1.270000000
C     6.197000000    -0.924000000    -1.329000000
O     7.185000000    -0.503000000    -0.451000000
C     7.099000000     0.692000000     0.305000000
C     6.210000000     0.839000000     1.416000000
H     5.597000000    -0.010000000     1.706000000
C     7.907000000     1.749000000    -0.150000000
H     8.602000000     1.543000000    -0.959000000
C     7.832000000     2.930000000     0.585000000
H     8.553000000     3.732000000     0.447000000
C     6.835000000     3.193000000     1.535000000
H     6.731000000     4.116000000     2.100000000
C     6.059000000     2.082000000     1.984000000
O     5.332000000     2.150000000     3.146000000
C     4.061000000     2.650000000     3.315000000
C     3.546000000     2.496000000     4.560000000
H     4.045000000     2.026000000     5.404000000
C     2.271000000     2.997000000     4.775000000
O     1.748000000     2.838000000     5.986000000
C     0.358000000     2.748000000     6.266000000
C    -0.250000000     1.501000000     6.340000000
H     0.372000000     0.612000000     6.282000000
C    -0.392000000     3.865000000     6.488000000
H     0.076000000     4.846000000     6.457000000
C    -1.770000000     3.765000000     6.657000000
H    -2.378000000     4.650000000     6.826000000
C    -2.386000000     2.538000000     6.561000000
H    -3.458000000     2.551000000     6.741000000
C    -1.640000000     1.372000000     6.470000000
O    -2.225000000     0.137000000     6.470000000
C    -3.055000000    -0.127000000     5.436000000
C    -3.777000000    -1.336000000     5.489000000
H    -3.909000000    -1.910000000     6.403000000
C    -4.386000000    -1.816000000     4.404000000
O    -4.929000000    -3.061000000     4.306000000
C    -4.905000000    -3.892000000     3.204000000
C    -3.661000000    -4.261000000     2.659000000
H    -2.743000000    -3.823000000     3.043000000
C    -6.128000000    -4.434000000     2.715000000
H    -7.095000000    -4.027000000     2.998000000
C    -6.127000000    -5.402000000     1.704000000
H    -7.059000000    -5.860000000     1.381000000
C    -4.863000000    -5.807000000     1.158000000
H    -4.825000000    -6.534000000     0.351000000
C    -3.683000000    -5.216000000     1.668000000
O    -2.429000000    -5.620000000     1.159000000
C    -1.982000000    -5.388000000    -0.127000000
C    -0.918000000    -6.137000000    -0.518000000
H    -0.631000000    -7.033000000     0.028000000
C    -0.242000000    -5.751000000    -1.653000000
O     0.834000000    -6.532000000    -2.082000000
C     1.770000000    -5.992000000    -2.938000000
C     1.731000000    -6.359000000    -4.258000000
H     1.032000000    -7.149000000    -4.519000000
C     2.927000000    -6.155000000    -4.986000000
H     3.034000000    -6.690000000    -5.926000000
C     4.031000000    -5.427000000    -4.435000000
H     4.832000000    -5.198000000    -5.133000000
C     3.967000000    -4.907000000    -3.127000000
C     2.894000000    -5.309000000    -2.324000000
H     2.936000000    -5.106000000    -1.257000000
C     1.710000000    -1.720000000     0.304000000
H     2.215000000    -2.606000000    -0.073000000
C     0.833000000    -0.991000000    -0.493000000
H     0.737000000    -1.378000000    -1.504000000
C     0.225000000     0.152000000    -0.002000000
C    -0.702000000     0.958000000    -0.970000000
H    -0.632000000     0.741000000    -2.038000000
H    -1.691000000     0.643000000    -0.629000000
H    -0.480000000     2.023000000    -0.880000000
C     0.383000000     0.451000000     1.270000000
H    -0.194000000     1.283000000     1.664000000
C     1.305000000    -0.253000000     2.075000000
H     1.453000000     0.155000000     3.072000000
C     1.970000000    -1.382000000     1.584000000
C     2.927000000    -2.062000000     2.526000000
O     3.086000000    -1.645000000     3.707000000
O     3.452000000    -3.125000000     2.176000000
O     3.483000000    -3.673000000     6.151000000
H     3.213000000    -2.807000000     5.845000000
H     4.242000000    -3.504000000     6.709000000
O     5.672000000    -3.502000000     7.675000000
H     5.512000000    -3.523000000     8.618000000
H     6.548000000    -3.128000000     7.588000000
O    -0.137000000    -7.586000000     3.221000000
H    -0.247000000    -6.636000000     3.203000000
H     0.810000000    -7.718000000     3.175000000
O     1.924000000    -1.294000000     5.858000000
H     2.562000000    -0.880000000     6.440000000
H     2.384000000    -1.382000000     5.023000000
O     5.267000000    -5.753000000    -0.068000000
H     5.590000000    -5.565000000    -0.949000000
H     5.517000000    -4.987000000     0.448000000
O     4.182000000    -5.255000000     3.992000000
H     4.044000000    -4.869000000     4.857000000
H     3.982000000    -4.548000000     3.379000000
O     1.746000000    -5.037000000     0.993000000
H     0.998000000    -4.636000000     1.436000000
H     2.511000000    -4.638000000     1.407000000
O    -0.178000000    -4.823000000     2.825000000
H    -0.038000000    -3.879000000     2.896000000
H    -1.110000000    -4.913000000     2.630000000
O     2.526000000    -7.465000000     3.787000000
H     2.115000000    -7.021000000     4.529000000
H     3.237000000    -6.881000000     3.522000000
O    -0.949000000    -2.255000000     2.143000000
H    -0.533000000    -1.523000000     1.687000000
H    -0.676000000    -2.155000000     3.055000000
O     4.169000000    -0.520000000     7.358000000
H     5.040000000    -0.817000000     7.623000000
H     3.900000000     0.082000000     8.052000000
O     6.878000000    -5.292000000     3.712000000
H     6.896000000    -4.401000000     3.364000000
H     5.963000000    -5.438000000     3.952000000
O     1.080000000    -5.856000000     5.363000000
H     1.448000000    -5.276000000     6.029000000
H     0.951000000    -5.293000000     4.600000000
O     3.167000000    -7.558000000     0.191000000
H     3.881000000    -6.922000000     0.245000000
H     2.378000000    -7.048000000     0.373000000
O     5.335000000    -1.326000000     4.751000000
H     5.079000000    -1.464000000     5.663000000
H     4.524000000    -1.073000000     4.310000000
O     8.177000000    -1.987000000     5.017000000
H     7.261000000    -1.856000000     4.774000000
H     8.150000000    -2.202000000     5.949000000
O     6.066000000    -3.179000000     1.852000000
H     5.127000000    -3.156000000     2.038000000
H     6.273000000    -2.291000000     1.560000000
O     6.702000000     1.083000000     6.201000000
H     6.369000000     0.457000000     5.558000000
H     7.356000000     1.593000000     5.722000000
O    -0.296000000    -2.324000000     4.743000000
H    -0.894000000    -1.685000000     5.131000000
H     0.539000000    -2.172000000     5.186000000
