218
-1492.11912
C     1.415000000     3.323000000     3.628000000
H     0.340000000     3.244000000     3.767000000
C     1.921000000     3.938000000     2.481000000
C     3.289000000     3.930000000     2.279000000
H     3.599000000     4.257000000     1.290000000
C     0.966000000     4.149000000     1.267000000
O    -0.272000000     4.739000000     1.717000000
H     0.806000000     3.094000000     1.001000000
O     1.583000000     4.981000000     0.217000000
C     1.273000000     4.477000000    -0.991000000
C     2.217000000     3.762000000    -1.658000000
H     3.200000000     3.566000000    -1.238000000
C     1.885000000     3.133000000    -2.861000000
O     2.859000000     2.194000000    -3.247000000
C     0.660000000     3.282000000    -3.448000000
C     0.336000000     2.656000000    -4.777000000
H    -0.243000000     3.306000000    -5.436000000
C    -0.142000000     1.284000000    -4.558000000
C    -1.513000000     1.086000000    -4.539000000
H    -2.216000000     1.880000000    -4.775000000
H     1.240000000     2.730000000    -5.385000000
C    -0.321000000     4.006000000    -2.798000000
H    -1.338000000     4.069000000    -3.177000000
C     0.020000000     4.675000000    -1.590000000
C    -1.057000000     5.438000000    -0.881000000
H    -1.557000000     6.030000000    -1.651000000
H    -0.511000000     6.215000000    -0.342000000
C    -1.919000000     4.470000000     0.016000000
C    -3.074000000     3.889000000    -0.432000000
H    -3.466000000     4.189000000    -1.400000000
C    -1.355000000     4.148000000     1.213000000
C    -2.028000000     3.165000000     2.047000000
H    -1.658000000     2.887000000     3.031000000
C    -3.221000000     2.622000000     1.624000000
O    -3.867000000     1.776000000     2.444000000
C    -3.740000000     0.329000000     2.150000000
C    -3.618000000    -0.452000000     3.457000000
C    -3.912000000    -1.823000000     3.432000000
H    -4.511000000    -2.188000000     2.602000000
C    -3.074000000     0.060000000     4.635000000
H    -2.846000000     1.122000000     4.600000000
O    -4.875000000    -0.047000000     1.372000000
H    -2.786000000     0.175000000     1.624000000
C    -3.744000000     2.912000000     0.342000000
C    -5.049000000     2.341000000    -0.196000000
H    -5.435000000     2.942000000    -1.022000000
H    -5.801000000     2.403000000     0.593000000
C    -4.932000000     0.955000000    -0.815000000
C    -4.476000000     0.818000000    -2.114000000
H    -4.458000000     1.696000000    -2.755000000
C    -4.714000000    -0.124000000     0.025000000
C    -4.210000000    -1.327000000    -0.492000000
H    -3.948000000    -2.115000000     0.210000000
C    -3.906000000    -1.482000000    -1.818000000
O    -3.420000000    -2.659000000    -2.189000000
C    -1.977000000    -2.628000000    -2.375000000
C    -1.313000000    -3.949000000    -2.010000000
C    -1.794000000    -4.634000000    -0.881000000
H    -2.609000000    -4.128000000    -0.371000000
C    -0.243000000    -4.538000000    -2.677000000
H     0.158000000    -3.983000000    -3.522000000
O    -1.778000000    -2.444000000    -3.709000000
H    -1.557000000    -1.864000000    -1.704000000
C    -4.034000000    -0.360000000    -2.657000000
C    -3.610000000    -0.447000000    -4.123000000
H    -4.269000000     0.237000000    -4.662000000
H    -3.846000000    -1.468000000    -4.431000000
C    -2.092000000    -0.150000000    -4.247000000
C    -1.196000000    -1.215000000    -4.053000000
C     0.192000000    -1.083000000    -4.130000000
H     0.848000000    -1.874000000    -3.776000000
C     0.698000000     0.188000000    -4.398000000
O     2.060000000     0.323000000    -4.438000000
C     2.573000000     0.822000000    -3.098000000
H     1.851000000     0.633000000    -2.290000000
C     3.817000000     0.036000000    -2.756000000
C     4.635000000     0.610000000    -1.790000000
H     4.458000000     1.602000000    -1.381000000
C     3.952000000    -1.239000000    -3.172000000
H     3.093000000    -1.643000000    -3.703000000
C     5.045000000    -2.028000000    -2.775000000
O     5.081000000    -3.412000000    -2.972000000
C     5.982000000    -1.438000000    -1.914000000
H     6.879000000    -1.958000000    -1.587000000
C     5.755000000    -0.167000000    -1.347000000
O     6.611000000     0.319000000    -0.425000000
C     6.556000000     1.609000000     0.037000000
C     6.158000000     1.784000000     1.305000000
H     5.593000000     0.967000000     1.746000000
C     7.020000000     2.651000000    -0.779000000
H     7.370000000     2.524000000    -1.800000000
C     6.874000000     3.934000000    -0.232000000
H     7.196000000     4.762000000    -0.859000000
C     6.417000000     4.150000000     1.067000000
H     6.276000000     5.160000000     1.443000000
C     6.063000000     3.075000000     1.818000000
O     5.429000000     3.267000000     3.069000000
C     4.133000000     3.449000000     3.260000000
C     3.609000000     2.843000000     4.345000000
H     4.297000000     2.259000000     4.951000000
C     2.270000000     2.792000000     4.634000000
O     1.920000000     1.994000000     5.729000000
C     0.678000000     1.927000000     6.301000000
C    -0.136000000     0.763000000     6.132000000
H     0.134000000    -0.010000000     5.417000000
C     0.332000000     2.885000000     7.261000000
H     1.014000000     3.711000000     7.445000000
C    -0.823000000     2.730000000     8.024000000
H    -1.131000000     3.536000000     8.685000000
C    -1.578000000     1.628000000     7.890000000
H    -2.454000000     1.586000000     8.532000000
C    -1.290000000     0.654000000     6.925000000
O    -2.157000000    -0.448000000     6.837000000
C    -2.750000000    -0.849000000     5.702000000
C    -2.967000000    -2.213000000     5.568000000
H    -2.733000000    -2.936000000     6.345000000
C    -3.580000000    -2.710000000     4.436000000
O    -3.605000000    -4.114000000     4.293000000
C    -3.798000000    -4.669000000     3.010000000
C    -2.706000000    -5.362000000     2.509000000
H    -1.769000000    -5.321000000     3.058000000
C    -5.035000000    -4.696000000     2.396000000
H    -5.908000000    -4.251000000     2.866000000
C    -5.196000000    -5.356000000     1.170000000
H    -6.166000000    -5.519000000     0.706000000
C    -4.113000000    -6.161000000     0.739000000
H    -4.331000000    -6.782000000    -0.126000000
C    -2.863000000    -6.025000000     1.303000000
O    -1.754000000    -6.501000000     0.650000000
C    -1.290000000    -5.833000000    -0.453000000
C    -0.243000000    -6.434000000    -1.150000000
H     0.308000000    -7.276000000    -0.739000000
C     0.305000000    -5.767000000    -2.253000000
O     1.285000000    -6.423000000    -3.012000000
C     2.256000000    -5.635000000    -3.609000000
C     2.166000000    -5.634000000    -4.934000000
H     1.408000000    -6.243000000    -5.421000000
C     3.060000000    -4.889000000    -5.720000000
H     3.098000000    -4.934000000    -6.805000000
C     4.019000000    -4.189000000    -5.005000000
H     4.894000000    -3.789000000    -5.510000000
C     4.089000000    -4.114000000    -3.650000000
C     3.227000000    -4.929000000    -2.899000000
H     3.212000000    -4.925000000    -1.812000000
C     2.239000000    -1.630000000     0.294000000
H     2.699000000    -2.533000000    -0.098000000
C     1.103000000    -1.071000000    -0.309000000
H     0.744000000    -1.587000000    -1.196000000
C     0.522000000     0.039000000     0.169000000
C    -0.620000000     0.681000000    -0.524000000
H    -0.390000000     1.695000000    -0.856000000
H    -0.851000000     0.186000000    -1.470000000
H    -1.513000000     0.729000000     0.104000000
C     0.882000000     0.526000000     1.446000000
H     0.364000000     1.392000000     1.849000000
C     1.972000000    -0.054000000     2.051000000
H     2.158000000     0.321000000     3.054000000
C     2.731000000    -1.055000000     1.472000000
C     3.951000000    -1.585000000     2.142000000
O     4.111000000    -1.364000000     3.401000000
O     4.707000000    -2.326000000     1.544000000
O     8.070000000    -5.417000000     2.669000000
H     8.901000000    -5.299000000     2.209000000
H     8.231000000    -5.070000000     3.547000000
O     5.942000000    -2.967000000     6.121000000
H     5.645000000    -2.219000000     6.639000000
H     6.468000000    -2.580000000     5.421000000
O    10.109000000    -0.169000000     1.878000000
H     9.678000000    -1.022000000     1.931000000
H    10.168000000     0.126000000     2.787000000
O     2.459000000    -1.512000000     5.432000000
H     2.935000000    -0.787000000     5.839000000
H     2.933000000    -1.682000000     4.618000000
O     6.274000000    -4.244000000     0.437000000
H     5.903000000    -3.443000000     0.806000000
H     6.914000000    -4.534000000     1.087000000
O     4.868000000    -4.622000000     3.698000000
H     5.362000000    -4.170000000     4.381000000
H     4.643000000    -3.936000000     3.070000000
O     2.927000000    -5.580000000     0.591000000
H     2.534000000    -5.198000000     1.375000000
H     3.848000000    -5.320000000     0.634000000
O     0.705000000    -4.551000000     2.385000000
H     0.690000000    -3.985000000     3.157000000
H     0.600000000    -3.951000000     1.646000000
O     7.741000000     3.102000000     4.837000000
H     6.875000000     2.959000000     4.454000000
H     8.246000000     3.516000000     4.137000000
O    -1.061000000    -2.226000000     1.902000000
H    -0.447000000    -1.512000000     2.072000000
H    -1.149000000    -2.671000000     2.745000000
O     2.562000000    -2.810000000     7.950000000
H     3.303000000    -2.379000000     8.376000000
H     2.461000000    -2.346000000     7.119000000
O     4.246000000     0.032000000     7.490000000
H     3.810000000     0.642000000     8.085000000
H     5.098000000     0.433000000     7.318000000
O     6.146000000    -7.382000000     3.190000000
H     5.465000000    -6.711000000     3.241000000
H     6.957000000    -6.891000000     3.055000000
O     6.279000000    -0.520000000     4.358000000
H     6.825000000    -0.639000000     3.581000000
H     5.396000000    -0.750000000     4.068000000
O     9.835000000    -0.212000000     4.798000000
H    10.048000000     0.029000000     5.699000000
H     8.989000000     0.203000000     4.633000000
O     7.326000000    -1.216000000     2.121000000
H     7.651000000    -0.848000000     1.299000000
H     6.492000000    -1.623000000     1.888000000
O     7.218000000     0.015000000     6.843000000
H     6.928000000    -0.335000000     6.001000000
H     7.502000000     0.908000000     6.645000000
O     0.158000000    -2.833000000     4.304000000
H    -0.059000000    -3.501000000     4.954000000
H     0.684000000    -2.193000000     4.785000000
O     2.780000000    -6.539000000     4.126000000
H     3.459000000    -5.876000000     4.002000000
H     2.796000000    -6.726000000     5.064000000
