218
-1462.13447
C     0.204000000     3.684000000     4.335000000
H    -0.875000000     3.813000000     4.297000000
C     0.886000000     3.847000000     3.168000000
C     2.312000000     3.674000000     3.131000000
H     2.901000000     3.826000000     2.231000000
C     0.225000000     3.994000000     1.820000000
O    -1.169000000     4.454000000     2.033000000
H     0.287000000     2.950000000     1.476000000
O     0.974000000     4.839000000     0.834000000
C     1.007000000     4.379000000    -0.463000000
C     2.160000000     3.779000000    -0.943000000
H     2.953000000     3.716000000    -0.203000000
C     2.242000000     3.356000000    -2.252000000
O     3.336000000     2.621000000    -2.582000000
C     1.137000000     3.655000000    -3.114000000
C     1.135000000     3.182000000    -4.427000000
H     0.577000000     3.742000000    -5.180000000
C     0.596000000     1.721000000    -4.500000000
C    -0.786000000     1.429000000    -4.577000000
H    -1.507000000     2.239000000    -4.658000000
H     2.186000000     3.274000000    -4.709000000
C     0.015000000     4.309000000    -2.609000000
H    -0.794000000     4.484000000    -3.313000000
C    -0.029000000     4.663000000    -1.326000000
C    -1.332000000     5.275000000    -0.776000000
H    -1.843000000     5.687000000    -1.648000000
H    -1.025000000     6.074000000    -0.098000000
C    -2.251000000     4.296000000    -0.116000000
C    -3.253000000     3.649000000    -0.856000000
H    -3.282000000     3.876000000    -1.919000000
C    -2.197000000     4.001000000     1.200000000
C    -3.050000000     3.063000000     1.861000000
H    -2.801000000     2.810000000     2.888000000
C    -3.994000000     2.388000000     1.103000000
O    -4.560000000     1.298000000     1.714000000
C    -4.108000000    -0.070000000     1.324000000
C    -3.971000000    -0.858000000     2.563000000
C    -4.156000000    -2.234000000     2.498000000
H    -4.566000000    -2.678000000     1.595000000
C    -3.480000000    -0.329000000     3.798000000
H    -3.335000000     0.748000000     3.821000000
O    -5.056000000    -0.557000000     0.299000000
H    -3.102000000    -0.030000000     0.881000000
C    -4.150000000     2.719000000    -0.283000000
C    -5.129000000     2.043000000    -1.241000000
H    -5.401000000     2.729000000    -2.046000000
H    -6.058000000     1.947000000    -0.674000000
C    -4.554000000     0.731000000    -1.693000000
C    -3.930000000     0.681000000    -2.909000000
H    -3.866000000     1.606000000    -3.476000000
C    -4.657000000    -0.490000000    -0.998000000
C    -3.890000000    -1.611000000    -1.459000000
H    -3.818000000    -2.484000000    -0.815000000
C    -3.238000000    -1.582000000    -2.676000000
O    -2.500000000    -2.699000000    -3.026000000
C    -1.078000000    -2.654000000    -3.079000000
C    -0.453000000    -3.906000000    -2.434000000
C    -1.177000000    -4.739000000    -1.605000000
H    -2.244000000    -4.633000000    -1.430000000
C     0.853000000    -4.240000000    -2.711000000
H     1.479000000    -3.598000000    -3.325000000
O    -0.625000000    -2.358000000    -4.435000000
H    -0.721000000    -1.818000000    -2.459000000
C    -3.305000000    -0.446000000    -3.435000000
C    -2.589000000    -0.361000000    -4.768000000
H    -3.108000000     0.344000000    -5.421000000
H    -2.761000000    -1.347000000    -5.204000000
C    -1.162000000     0.055000000    -4.652000000
C    -0.268000000    -0.989000000    -4.499000000
C     1.110000000    -0.718000000    -4.414000000
H     1.786000000    -1.563000000    -4.315000000
C     1.516000000     0.638000000    -4.460000000
O     2.824000000     0.905000000    -4.162000000
C     3.067000000     1.229000000    -2.801000000
H     2.110000000     1.010000000    -2.305000000
C     4.220000000     0.375000000    -2.162000000
C     4.775000000     0.736000000    -0.938000000
H     4.294000000     1.599000000    -0.486000000
C     4.589000000    -0.789000000    -2.710000000
H     4.248000000    -1.045000000    -3.710000000
C     5.533000000    -1.577000000    -2.084000000
O     6.079000000    -2.619000000    -2.734000000
C     6.237000000    -1.205000000    -0.943000000
H     6.977000000    -1.847000000    -0.472000000
C     5.758000000    -0.055000000    -0.357000000
O     6.372000000     0.256000000     0.860000000
C     6.082000000     1.495000000     1.376000000
C     5.214000000     1.555000000     2.453000000
H     4.741000000     0.648000000     2.819000000
C     6.862000000     2.578000000     0.989000000
H     7.614000000     2.493000000     0.208000000
C     6.694000000     3.761000000     1.647000000
H     7.358000000     4.599000000     1.452000000
C     5.813000000     3.876000000     2.699000000
H     5.639000000     4.828000000     3.194000000
C     5.124000000     2.750000000     3.190000000
O     4.291000000     2.874000000     4.279000000
C     2.937000000     3.158000000     4.296000000
C     2.288000000     3.223000000     5.566000000
H     2.820000000     2.807000000     6.418000000
C     0.932000000     3.379000000     5.495000000
O     0.166000000     3.193000000     6.711000000
C    -1.070000000     2.529000000     6.702000000
C    -1.136000000     1.179000000     6.316000000
H    -0.288000000     0.565000000     6.023000000
C    -2.212000000     3.256000000     7.015000000
H    -2.219000000     4.290000000     7.352000000
C    -3.433000000     2.588000000     7.113000000
H    -4.357000000     3.096000000     7.377000000
C    -3.513000000     1.323000000     6.608000000
H    -4.455000000     0.782000000     6.645000000
C    -2.402000000     0.569000000     6.217000000
O    -2.591000000    -0.754000000     5.966000000
C    -3.147000000    -1.151000000     4.826000000
C    -3.338000000    -2.486000000     4.733000000
H    -3.225000000    -3.086000000     5.632000000
C    -3.831000000    -3.043000000     3.569000000
O    -3.844000000    -4.435000000     3.448000000
C    -3.765000000    -5.195000000     2.330000000
C    -2.583000000    -5.503000000     1.704000000
H    -1.644000000    -5.149000000     2.122000000
C    -4.881000000    -5.841000000     1.855000000
H    -5.818000000    -5.540000000     2.315000000
C    -4.835000000    -6.741000000     0.798000000
H    -5.769000000    -7.167000000     0.440000000
C    -3.643000000    -6.920000000     0.093000000
H    -3.617000000    -7.518000000    -0.814000000
C    -2.484000000    -6.289000000     0.576000000
O    -1.259000000    -6.588000000     0.047000000
C    -0.604000000    -5.792000000    -0.877000000
C     0.699000000    -6.095000000    -1.102000000
H     1.144000000    -6.964000000    -0.624000000
C     1.387000000    -5.374000000    -2.104000000
O     2.678000000    -5.768000000    -2.334000000
C     3.491000000    -5.127000000    -3.200000000
C     3.470000000    -5.308000000    -4.621000000
H     2.823000000    -6.045000000    -5.090000000
C     4.377000000    -4.552000000    -5.419000000
H     4.308000000    -4.661000000    -6.499000000
C     5.260000000    -3.673000000    -4.760000000
H     5.960000000    -3.076000000    -5.339000000
C     5.293000000    -3.531000000    -3.384000000
C     4.362000000    -4.203000000    -2.605000000
H     4.426000000    -4.092000000    -1.526000000
C     1.719000000    -2.249000000    -0.083000000
H     2.537000000    -2.790000000    -0.553000000
C     1.048000000    -1.262000000    -0.681000000
H     1.223000000    -0.977000000    -1.715000000
C     0.110000000    -0.516000000     0.001000000
C    -0.509000000     0.596000000    -0.773000000
H    -0.844000000     1.384000000    -0.095000000
H     0.161000000     1.071000000    -1.493000000
H    -1.478000000     0.528000000    -1.273000000
C    -0.172000000    -0.745000000     1.314000000
H    -0.860000000    -0.142000000     1.902000000
C     0.492000000    -1.815000000     1.960000000
H     0.280000000    -2.070000000     2.996000000
C     1.420000000    -2.556000000     1.292000000
C     2.140000000    -3.736000000     1.923000000
O     2.005000000    -3.934000000     3.109000000
O     3.060000000    -4.314000000     1.348000000
O    -1.850000000    -6.700000000     5.581000000
H    -2.564000000    -6.381000000     5.030000000
H    -1.185000000    -6.014000000     5.533000000
O     2.259000000    -1.920000000     5.499000000
H     2.670000000    -2.704000000     5.864000000
H     1.963000000    -2.187000000     4.629000000
O     5.087000000    -2.836000000     2.255000000
H     4.304000000    -3.387000000     2.243000000
H     5.374000000    -2.807000000     1.343000000
O     3.809000000    -8.233000000    -2.249000000
H     4.147000000    -8.271000000    -1.354000000
H     3.540000000    -7.322000000    -2.366000000
O     2.411000000    -7.136000000     1.615000000
H     2.084000000    -7.110000000     2.514000000
H     2.727000000    -6.248000000     1.448000000
O     1.172000000    -7.683000000     4.252000000
H     0.816000000    -6.849000000     4.557000000
H     0.405000000    -8.245000000     4.142000000
O     3.643000000    -5.579000000     4.340000000
H     3.035000000    -4.988000000     3.898000000
H     3.790000000    -5.175000000     5.196000000
O     0.086000000    -5.132000000     4.651000000
H     0.809000000    -4.695000000     4.201000000
H     0.034000000    -4.696000000     5.501000000
O     7.160000000    -7.674000000     2.084000000
H     7.681000000    -7.178000000     2.715000000
H     6.283000000    -7.702000000     2.467000000
O     5.215000000    -5.513000000     0.652000000
H     4.506000000    -4.914000000     0.883000000
H     5.917000000    -5.303000000     1.267000000
O     0.409000000    -9.401000000     1.067000000
H     1.138000000    -8.783000000     1.130000000
H    -0.009000000    -9.366000000     1.927000000
O     6.929000000    -7.518000000    -0.806000000
H     7.276000000    -7.740000000     0.058000000
H     6.255000000    -6.861000000    -0.632000000
O     4.209000000    -8.767000000     0.436000000
H     3.642000000    -8.233000000     0.993000000
H     5.078000000    -8.680000000     0.826000000
O     4.811000000    -8.096000000     3.243000000
H     4.318000000    -8.838000000     3.592000000
H     4.241000000    -7.341000000     3.387000000
O     3.965000000    -4.547000000     6.657000000
H     4.707000000    -5.015000000     7.039000000
H     3.330000000    -4.480000000     7.371000000
O     6.248000000    -4.624000000     4.106000000
H     5.305000000    -4.678000000     4.260000000
H     6.351000000    -3.886000000     3.505000000
O     6.617000000    -1.304000000     4.475000000
H     6.066000000    -0.724000000     5.000000000
H     6.064000000    -1.551000000     3.733000000
O     4.644000000    -0.021000000     6.044000000
H     4.744000000     0.759000000     6.590000000
H     3.739000000    -0.299000000     6.188000000
O    -0.316000000    -4.306000000     6.985000000
H    -0.952000000    -3.718000000     7.392000000
H     0.184000000    -4.662000000     7.719000000
