218
-1483.20556
C     0.942000000     1.875000000     4.649000000
H    -0.128000000     1.825000000     4.836000000
C     1.405000000     2.622000000     3.567000000
C     2.754000000     2.587000000     3.157000000
H     3.052000000     3.168000000     2.288000000
C     0.425000000     3.311000000     2.607000000
O    -0.824000000     3.601000000     3.228000000
H     0.166000000     2.606000000     1.803000000
O     0.850000000     4.568000000     2.109000000
C     0.789000000     4.612000000     0.697000000
C     1.841000000     4.185000000    -0.075000000
H     2.786000000     3.873000000     0.361000000
C     1.648000000     4.073000000    -1.427000000
O     2.688000000     3.528000000    -2.196000000
C     0.425000000     4.394000000    -2.009000000
C     0.274000000     4.263000000    -3.570000000
H    -0.597000000     4.850000000    -3.866000000
C    -0.050000000     2.803000000    -3.890000000
C    -1.385000000     2.527000000    -4.096000000
H    -2.104000000     3.316000000    -3.892000000
H     1.152000000     4.502000000    -4.174000000
C    -0.588000000     4.821000000    -1.230000000
H    -1.503000000     5.137000000    -1.724000000
C    -0.453000000     4.909000000     0.153000000
C    -1.755000000     5.237000000     0.939000000
H    -2.442000000     5.908000000     0.419000000
H    -1.521000000     5.890000000     1.782000000
C    -2.381000000     3.982000000     1.397000000
C    -3.495000000     3.509000000     0.733000000
H    -3.849000000     3.933000000    -0.203000000
C    -1.937000000     3.237000000     2.496000000
C    -2.624000000     2.084000000     2.943000000
H    -2.215000000     1.543000000     3.792000000
C    -3.791000000     1.682000000     2.329000000
O    -4.378000000     0.418000000     2.719000000
C    -3.875000000    -0.733000000     1.917000000
C    -3.651000000    -1.887000000     2.852000000
C    -3.696000000    -3.178000000     2.265000000
H    -3.882000000    -3.288000000     1.200000000
C    -3.326000000    -1.645000000     4.158000000
H    -3.276000000    -0.634000000     4.553000000
O    -4.799000000    -0.989000000     0.842000000
H    -2.866000000    -0.541000000     1.524000000
C    -4.178000000     2.335000000     1.142000000
C    -5.284000000     1.830000000     0.243000000
H    -5.692000000     2.723000000    -0.234000000
H    -6.110000000     1.385000000     0.801000000
C    -4.814000000     0.792000000    -0.756000000
C    -4.284000000     1.285000000    -1.985000000
H    -4.453000000     2.331000000    -2.228000000
C    -4.533000000    -0.520000000    -0.383000000
C    -3.935000000    -1.367000000    -1.314000000
H    -3.792000000    -2.406000000    -1.030000000
C    -3.708000000    -0.968000000    -2.645000000
O    -3.134000000    -1.855000000    -3.497000000
C    -1.705000000    -1.821000000    -3.501000000
C    -1.053000000    -3.143000000    -3.311000000
C    -1.816000000    -4.232000000    -2.881000000
H    -2.877000000    -4.166000000    -2.650000000
C     0.290000000    -3.240000000    -3.409000000
H     0.907000000    -2.367000000    -3.604000000
O    -1.156000000    -1.139000000    -4.649000000
H    -1.402000000    -1.265000000    -2.601000000
C    -3.854000000     0.402000000    -2.984000000
C    -3.330000000     0.915000000    -4.346000000
H    -3.824000000     1.855000000    -4.604000000
H    -3.441000000     0.265000000    -5.217000000
C    -1.795000000     1.187000000    -4.261000000
C    -0.844000000     0.222000000    -4.538000000
C     0.475000000     0.601000000    -4.520000000
H     1.204000000    -0.197000000    -4.638000000
C     0.930000000     1.848000000    -4.097000000
O     2.202000000     2.022000000    -3.887000000
C     2.672000000     2.115000000    -2.547000000
H     2.088000000     1.454000000    -1.890000000
C     4.019000000     1.452000000    -2.535000000
C     4.922000000     1.744000000    -1.530000000
H     4.754000000     2.705000000    -1.051000000
C     4.294000000     0.422000000    -3.439000000
H     3.588000000     0.211000000    -4.238000000
C     5.393000000    -0.367000000    -3.272000000
O     5.744000000    -1.371000000    -4.109000000
C     6.288000000    -0.126000000    -2.270000000
H     7.154000000    -0.783000000    -2.281000000
C     6.089000000     0.947000000    -1.408000000
O     7.128000000     1.286000000    -0.557000000
C     6.917000000     1.959000000     0.616000000
C     5.897000000     1.624000000     1.458000000
H     5.289000000     0.763000000     1.193000000
C     7.666000000     3.119000000     0.904000000
H     8.425000000     3.461000000     0.204000000
C     7.516000000     3.774000000     2.108000000
H     8.228000000     4.557000000     2.356000000
C     6.584000000     3.331000000     3.052000000
H     6.615000000     3.723000000     4.065000000
C     5.703000000     2.280000000     2.707000000
O     4.944000000     1.634000000     3.669000000
C     3.597000000     1.777000000     3.884000000
C     3.164000000     1.088000000     5.037000000
H     3.827000000     0.492000000     5.658000000
C     1.827000000     1.134000000     5.449000000
O     1.466000000     0.321000000     6.477000000
C     0.111000000     0.128000000     6.858000000
C    -0.471000000    -1.061000000     6.423000000
H     0.071000000    -1.765000000     5.797000000
C    -0.706000000     1.084000000     7.485000000
H    -0.266000000     2.009000000     7.851000000
C    -2.073000000     0.809000000     7.750000000
H    -2.729000000     1.529000000     8.234000000
C    -2.604000000    -0.442000000     7.423000000
H    -3.615000000    -0.747000000     7.681000000
C    -1.795000000    -1.350000000     6.668000000
O    -2.383000000    -2.528000000     6.234000000
C    -2.907000000    -2.767000000     4.954000000
C    -2.759000000    -4.023000000     4.366000000
H    -2.432000000    -4.876000000     4.956000000
C    -3.266000000    -4.256000000     3.092000000
O    -3.075000000    -5.531000000     2.486000000
C    -3.519000000    -5.804000000     1.183000000
C    -2.494000000    -5.889000000     0.250000000
H    -1.418000000    -5.844000000     0.391000000
C    -4.898000000    -5.932000000     0.862000000
H    -5.726000000    -5.810000000     1.556000000
C    -5.181000000    -6.319000000    -0.435000000
H    -6.230000000    -6.396000000    -0.707000000
C    -4.127000000    -6.551000000    -1.345000000
H    -4.297000000    -6.961000000    -2.337000000
C    -2.802000000    -6.267000000    -1.040000000
O    -1.847000000    -6.454000000    -1.984000000
C    -1.109000000    -5.404000000    -2.588000000
C     0.309000000    -5.549000000    -2.709000000
H     0.796000000    -6.505000000    -2.535000000
C     1.028000000    -4.463000000    -3.213000000
O     2.378000000    -4.487000000    -3.192000000
C     3.123000000    -3.804000000    -4.102000000
C     3.041000000    -4.083000000    -5.496000000
H     2.431000000    -4.910000000    -5.849000000
C     3.814000000    -3.395000000    -6.435000000
H     3.728000000    -3.577000000    -7.503000000
C     4.749000000    -2.485000000    -5.935000000
H     5.449000000    -1.881000000    -6.507000000
C     4.849000000    -2.280000000    -4.574000000
C     4.088000000    -2.941000000    -3.606000000
H     4.187000000    -2.772000000    -2.537000000
C     0.059000000    -3.128000000     1.037000000
H    -0.201000000    -4.134000000     0.719000000
C    -0.472000000    -2.115000000     0.273000000
H    -0.769000000    -2.227000000    -0.766000000
C    -0.369000000    -0.853000000     0.800000000
C    -0.826000000     0.277000000    -0.133000000
H    -1.302000000     1.027000000     0.502000000
H     0.065000000     0.711000000    -0.592000000
H    -1.597000000    -0.106000000    -0.804000000
C     0.174000000    -0.582000000     2.050000000
H     0.248000000     0.384000000     2.542000000
C     0.560000000    -1.645000000     2.865000000
H     1.038000000    -1.511000000     3.832000000
C     0.592000000    -2.940000000     2.322000000
C     1.172000000    -4.052000000     3.164000000
O     1.338000000    -3.763000000     4.327000000
O     1.414000000    -5.092000000     2.589000000
O     0.164000000    -4.313000000     8.303000000
H     0.561000000    -4.881000000     7.643000000
H    -0.408000000    -3.729000000     7.804000000
O    -3.986000000    -7.208000000     4.910000000
H    -3.253000000    -7.562000000     5.413000000
H    -3.627000000    -7.058000000     4.036000000
O     0.976000000    -5.748000000     6.151000000
H     0.976000000    -5.049000000     5.497000000
H     0.587000000    -6.498000000     5.699000000
O     1.899000000    -8.616000000     5.157000000
H     2.655000000    -8.105000000     4.868000000
H     1.779000000    -9.275000000     4.473000000
O     3.378000000    -1.240000000     1.681000000
H     3.292000000    -2.011000000     1.120000000
H     2.481000000    -1.033000000     1.942000000
O    -1.730000000    -8.626000000     5.505000000
H    -1.232000000    -8.423000000     6.297000000
H    -1.241000000    -8.200000000     4.800000000
O     5.120000000    -3.662000000     0.530000000
H     5.514000000    -4.159000000    -0.186000000
H     5.692000000    -2.901000000     0.636000000
O     1.722000000    -7.220000000     0.812000000
H     0.846000000    -7.574000000     0.657000000
H     1.604000000    -6.598000000     1.530000000
O     3.445000000    -1.356000000     8.530000000
H     3.129000000    -1.973000000     7.870000000
H     2.703000000    -0.771000000     8.684000000
O     3.903000000    -7.109000000     4.465000000
H     4.218000000    -6.589000000     5.204000000
H     3.853000000    -6.487000000     3.739000000
O    -0.732000000    -7.179000000     3.382000000
H    -0.090000000    -6.567000000     3.022000000
H    -1.212000000    -7.500000000     2.619000000
O     5.440000000    -2.342000000     5.850000000
H     5.752000000    -3.047000000     5.283000000
H     4.623000000    -2.676000000     6.220000000
O     4.144000000    -5.312000000     2.427000000
H     4.639000000    -4.820000000     1.772000000
H     3.235000000    -5.254000000     2.134000000
O     3.198000000    -6.482000000    -1.228000000
H     2.674000000    -5.754000000    -1.562000000
H     2.830000000    -6.664000000    -0.363000000
O     2.218000000    -9.708000000     1.828000000
H     1.269000000    -9.582000000     1.822000000
H     2.575000000    -8.851000000     1.594000000
O     6.035000000    -4.437000000     4.402000000
H     5.885000000    -5.007000000     5.156000000
H     5.241000000    -4.523000000     3.875000000
O     5.695000000    -1.674000000     2.911000000
H     5.546000000    -1.518000000     3.843000000
H     4.817000000    -1.710000000     2.531000000
O     3.165000000    -3.457000000     6.579000000
H     2.967000000    -4.299000000     6.990000000
H     2.550000000    -3.397000000     5.848000000
O     5.157000000    -6.150000000     6.575000000
H     6.096000000    -6.272000000     6.711000000
H     4.751000000    -6.521000000     7.358000000
