218
-1432.79765
C     1.170000000     1.989000000     4.362000000
H     0.106000000     2.102000000     4.554000000
C     1.687000000     2.636000000     3.235000000
C     3.064000000     2.587000000     3.062000000
H     3.554000000     3.106000000     2.243000000
C     0.791000000     3.376000000     2.276000000
O    -0.443000000     3.778000000     2.940000000
H     0.636000000     2.538000000     1.581000000
O     1.441000000     4.395000000     1.505000000
C     1.159000000     4.494000000     0.189000000
C     2.187000000     4.061000000    -0.585000000
H     3.063000000     3.628000000    -0.110000000
C     1.983000000     3.911000000    -1.926000000
O     2.945000000     3.270000000    -2.688000000
C     0.744000000     4.223000000    -2.494000000
C     0.524000000     3.921000000    -3.945000000
H    -0.230000000     4.606000000    -4.338000000
C     0.059000000     2.535000000    -4.264000000
C    -1.297000000     2.315000000    -4.296000000
H    -1.977000000     3.151000000    -4.156000000
H     1.419000000     4.216000000    -4.496000000
C    -0.342000000     4.552000000    -1.642000000
H    -1.330000000     4.634000000    -2.087000000
C    -0.066000000     4.884000000    -0.281000000
C    -1.168000000     5.335000000     0.651000000
H    -1.768000000     5.997000000     0.023000000
H    -0.790000000     5.853000000     1.535000000
C    -1.994000000     4.204000000     1.191000000
C    -3.143000000     3.743000000     0.452000000
H    -3.389000000     4.105000000    -0.542000000
C    -1.640000000     3.482000000     2.299000000
C    -2.496000000     2.481000000     2.808000000
H    -2.181000000     1.937000000     3.695000000
C    -3.641000000     2.126000000     2.169000000
O    -4.278000000     1.068000000     2.660000000
C    -4.026000000    -0.217000000     2.009000000
C    -3.891000000    -1.364000000     2.981000000
C    -3.854000000    -2.647000000     2.495000000
H    -4.081000000    -2.790000000     1.442000000
C    -3.538000000    -1.156000000     4.315000000
H    -3.512000000    -0.135000000     4.686000000
O    -5.015000000    -0.499000000     0.948000000
H    -3.083000000    -0.136000000     1.447000000
C    -3.894000000     2.720000000     0.949000000
C    -5.087000000     2.282000000     0.179000000
H    -5.452000000     3.136000000    -0.394000000
H    -5.920000000     1.911000000     0.781000000
C    -4.750000000     1.130000000    -0.758000000
C    -4.258000000     1.454000000    -2.034000000
H    -4.197000000     2.494000000    -2.345000000
C    -4.684000000    -0.202000000    -0.306000000
C    -4.200000000    -1.208000000    -1.125000000
H    -4.078000000    -2.204000000    -0.705000000
C    -3.797000000    -0.886000000    -2.452000000
O    -3.198000000    -1.887000000    -3.124000000
C    -1.731000000    -1.943000000    -3.266000000
C    -1.317000000    -3.407000000    -3.121000000
C    -2.122000000    -4.462000000    -2.607000000
H    -3.150000000    -4.296000000    -2.295000000
C     0.043000000    -3.673000000    -3.364000000
H     0.648000000    -2.926000000    -3.873000000
O    -1.299000000    -1.401000000    -4.542000000
H    -1.231000000    -1.350000000    -2.486000000
C    -3.823000000     0.433000000    -2.884000000
C    -3.389000000     0.760000000    -4.297000000
H    -4.038000000     1.542000000    -4.697000000
H    -3.538000000    -0.065000000    -4.997000000
C    -1.830000000     1.020000000    -4.446000000
C    -0.916000000    -0.056000000    -4.421000000
C     0.478000000     0.162000000    -4.425000000
H     1.120000000    -0.713000000    -4.485000000
C     0.932000000     1.466000000    -4.363000000
O     2.213000000     1.649000000    -4.196000000
C     2.806000000     1.846000000    -2.908000000
H     1.984000000     1.502000000    -2.263000000
C     4.135000000     1.070000000    -2.753000000
C     5.093000000     1.583000000    -1.905000000
H     4.838000000     2.415000000    -1.253000000
C     4.316000000    -0.188000000    -3.369000000
H     3.635000000    -0.557000000    -4.131000000
C     5.454000000    -0.909000000    -3.043000000
O     5.531000000    -2.200000000    -3.426000000
C     6.466000000    -0.353000000    -2.274000000
H     7.346000000    -0.893000000    -1.933000000
C     6.237000000     0.820000000    -1.690000000
O     7.214000000     1.346000000    -0.784000000
C     6.948000000     2.012000000     0.357000000
C     6.006000000     1.504000000     1.328000000
H     5.563000000     0.517000000     1.229000000
C     7.698000000     3.129000000     0.652000000
H     8.498000000     3.323000000    -0.057000000
C     7.429000000     3.884000000     1.782000000
H     8.071000000     4.751000000     1.914000000
C     6.536000000     3.363000000     2.779000000
H     6.475000000     3.718000000     3.805000000
C     5.920000000     2.124000000     2.601000000
O     5.109000000     1.564000000     3.593000000
C     3.875000000     1.746000000     3.867000000
C     3.303000000     1.072000000     4.940000000
H     3.990000000     0.463000000     5.521000000
C     1.969000000     1.327000000     5.305000000
O     1.452000000     0.649000000     6.430000000
C     0.153000000     0.587000000     6.690000000
C    -0.466000000    -0.630000000     6.460000000
H     0.152000000    -1.475000000     6.167000000
C    -0.506000000     1.620000000     7.308000000
H     0.001000000     2.551000000     7.548000000
C    -1.871000000     1.515000000     7.516000000
H    -2.406000000     2.343000000     7.974000000
C    -2.554000000     0.350000000     7.107000000
H    -3.620000000     0.207000000     7.266000000
C    -1.810000000    -0.706000000     6.619000000
O    -2.473000000    -1.863000000     6.321000000
C    -3.130000000    -2.161000000     5.147000000
C    -3.034000000    -3.449000000     4.642000000
H    -2.649000000    -4.261000000     5.254000000
C    -3.432000000    -3.679000000     3.331000000
O    -3.391000000    -5.030000000     2.946000000
C    -3.860000000    -5.452000000     1.712000000
C    -2.855000000    -5.728000000     0.733000000
H    -1.796000000    -5.488000000     0.796000000
C    -5.227000000    -5.747000000     1.500000000
H    -5.879000000    -5.674000000     2.366000000
C    -5.607000000    -6.354000000     0.318000000
H    -6.625000000    -6.641000000     0.069000000
C    -4.604000000    -6.711000000    -0.603000000
H    -4.906000000    -7.187000000    -1.532000000
C    -3.268000000    -6.282000000    -0.437000000
O    -2.378000000    -6.563000000    -1.448000000
C    -1.583000000    -5.667000000    -2.195000000
C    -0.217000000    -5.912000000    -2.370000000
H     0.375000000    -6.689000000    -1.892000000
C     0.545000000    -4.978000000    -3.079000000
O     1.876000000    -5.364000000    -3.216000000
C     2.792000000    -4.674000000    -3.965000000
C     2.778000000    -4.622000000    -5.353000000
H     1.923000000    -5.166000000    -5.747000000
C     3.621000000    -3.756000000    -6.032000000
H     3.463000000    -3.579000000    -7.093000000
C     4.468000000    -2.929000000    -5.369000000
H     5.167000000    -2.317000000    -5.933000000
C     4.565000000    -2.984000000    -4.033000000
C     3.740000000    -3.848000000    -3.309000000
H     3.717000000    -4.046000000    -2.240000000
C     0.838000000    -3.065000000     0.398000000
H     1.476000000    -3.795000000    -0.094000000
C     0.466000000    -1.851000000    -0.164000000
H     0.659000000    -1.680000000    -1.220000000
C    -0.142000000    -0.877000000     0.560000000
C    -0.387000000     0.489000000    -0.015000000
H     0.523000000     1.047000000    -0.245000000
H    -0.994000000     0.342000000    -0.911000000
H    -1.040000000     0.993000000     0.701000000
C    -0.312000000    -1.158000000     1.929000000
H    -0.668000000    -0.350000000     2.563000000
C    -0.010000000    -2.404000000     2.489000000
H    -0.189000000    -2.539000000     3.552000000
C     0.643000000    -3.383000000     1.686000000
C     0.925000000    -4.641000000     2.306000000
O     0.797000000    -4.797000000     3.483000000
O     1.381000000    -5.584000000     1.702000000
O     0.956000000    -5.232000000     8.522000000
H     0.272000000    -5.620000000     9.068000000
H     0.726000000    -5.491000000     7.630000000
O    -2.095000000    -7.313000000     6.431000000
H    -2.251000000    -6.567000000     7.010000000
H    -1.325000000    -7.064000000     5.921000000
O     2.168000000   -10.209000000    -1.517000000
H     2.028000000    -9.563000000    -0.826000000
H     2.764000000    -9.779000000    -2.130000000
O     0.388000000    -6.117000000     5.775000000
H     0.286000000    -5.487000000     5.061000000
H     0.792000000    -6.881000000     5.365000000
O     1.581000000    -8.891000000     5.362000000
H     2.421000000    -8.532000000     5.075000000
H     0.971000000    -8.662000000     4.660000000
O     4.594000000    -1.542000000     0.336000000
H     5.344000000    -1.997000000    -0.048000000
H     3.862000000    -1.758000000    -0.241000000
O     1.468000000    -7.939000000     0.347000000
H     0.576000000    -8.287000000     0.323000000
H     1.387000000    -7.108000000     0.816000000
O    -1.074000000    -8.826000000     0.931000000
H    -1.916000000    -9.120000000     1.279000000
H    -1.056000000    -9.160000000     0.034000000
O     3.671000000    -7.362000000     4.659000000
H     3.679000000    -6.630000000     5.275000000
H     3.754000000    -6.952000000     3.798000000
O     0.327000000    -7.790000000     3.313000000
H     0.481000000    -6.885000000     3.043000000
H    -0.377000000    -8.094000000     2.740000000
O     4.972000000    -5.369000000    -0.020000000
H     4.689000000    -5.689000000    -0.877000000
H     5.358000000    -4.511000000    -0.201000000
O    -0.965000000    -8.905000000    -1.775000000
H    -0.450000000    -9.001000000    -2.576000000
H    -1.430000000    -8.076000000    -1.888000000
O     3.772000000    -6.323000000     2.293000000
H     4.120000000    -6.142000000     1.420000000
H     2.850000000    -6.074000000     2.240000000
O     3.295000000    -7.097000000    -1.749000000
H     2.583000000    -6.788000000    -2.310000000
H     2.878000000    -7.263000000    -0.904000000
O     1.643000000   -10.801000000     2.658000000
H     1.472000000    -9.937000000     3.033000000
H     2.309000000   -10.643000000     1.988000000
O     5.990000000    -5.335000000     3.537000000
H     5.873000000    -4.387000000     3.481000000
H     5.243000000    -5.698000000     3.062000000
O     5.335000000    -2.709000000     2.865000000
H     4.624000000    -2.979000000     3.446000000
H     4.893000000    -2.349000000     2.096000000
O     3.483000000    -3.763000000     4.422000000
H     3.405000000    -4.327000000     5.191000000
H     2.713000000    -3.972000000     3.892000000
O     3.610000000    -5.216000000     6.789000000
H     4.318000000    -4.947000000     7.374000000
H     3.020000000    -5.725000000     7.346000000
