218
-1448.13162
C     1.927000000     2.789000000     3.992000000
H     0.880000000     2.831000000     4.282000000
C     2.161000000     3.063000000     2.641000000
C     3.322000000     2.763000000     2.094000000
H     3.527000000     3.055000000     1.067000000
C     0.928000000     3.551000000     1.783000000
O    -0.050000000     4.202000000     2.677000000
H     0.477000000     2.712000000     1.233000000
O     1.295000000     4.591000000     0.840000000
C     0.763000000     4.433000000    -0.400000000
C     1.608000000     4.008000000    -1.403000000
H     2.631000000     3.788000000    -1.111000000
C     1.111000000     3.692000000    -2.597000000
O     1.917000000     3.022000000    -3.520000000
C    -0.181000000     3.982000000    -2.947000000
C    -0.751000000     3.600000000    -4.241000000
H    -1.675000000     4.172000000    -4.347000000
C    -1.216000000     2.145000000    -4.312000000
C    -2.554000000     1.866000000    -3.955000000
H    -3.098000000     2.747000000    -3.622000000
H    -0.066000000     3.815000000    -5.063000000
C    -1.005000000     4.584000000    -2.001000000
H    -1.963000000     4.980000000    -2.330000000
C    -0.551000000     4.785000000    -0.701000000
C    -1.409000000     5.391000000     0.358000000
H    -2.206000000     5.863000000    -0.220000000
H    -0.821000000     6.111000000     0.932000000
C    -2.072000000     4.325000000     1.254000000
C    -3.302000000     3.721000000     0.965000000
H    -3.706000000     4.079000000     0.021000000
C    -1.403000000     3.889000000     2.387000000
C    -1.929000000     2.932000000     3.217000000
H    -1.415000000     2.546000000     4.093000000
C    -3.131000000     2.308000000     2.884000000
O    -3.356000000     1.160000000     3.571000000
C    -2.975000000    -0.076000000     2.904000000
C    -2.280000000    -1.028000000     3.869000000
C    -1.769000000    -2.235000000     3.328000000
H    -2.087000000    -2.518000000     2.328000000
C    -1.981000000    -0.669000000     5.171000000
H    -2.300000000     0.262000000     5.631000000
O    -4.228000000    -0.681000000     2.365000000
H    -2.267000000     0.004000000     2.066000000
C    -3.866000000     2.716000000     1.740000000
C    -5.133000000     1.941000000     1.271000000
H    -5.813000000     2.609000000     0.738000000
H    -5.637000000     1.470000000     2.118000000
C    -4.855000000     0.710000000     0.414000000
C    -4.936000000     0.852000000    -0.946000000
H    -5.056000000     1.826000000    -1.414000000
C    -4.439000000    -0.544000000     0.985000000
C    -4.023000000    -1.527000000     0.110000000
H    -3.699000000    -2.455000000     0.574000000
C    -4.175000000    -1.392000000    -1.315000000
O    -3.752000000    -2.384000000    -2.165000000
C    -2.404000000    -2.364000000    -2.749000000
C    -1.746000000    -3.769000000    -2.624000000
C    -1.972000000    -4.592000000    -1.515000000
H    -2.602000000    -4.339000000    -0.666000000
C    -0.939000000    -4.198000000    -3.685000000
H    -0.747000000    -3.556000000    -4.541000000
O    -2.492000000    -1.853000000    -4.140000000
H    -1.810000000    -1.622000000    -2.195000000
C    -4.503000000    -0.149000000    -1.820000000
C    -4.449000000     0.141000000    -3.344000000
H    -5.095000000     0.994000000    -3.558000000
H    -4.846000000    -0.685000000    -3.939000000
C    -3.046000000     0.549000000    -3.855000000
C    -2.201000000    -0.480000000    -4.317000000
C    -0.923000000    -0.164000000    -4.860000000
H    -0.300000000    -0.965000000    -5.249000000
C    -0.426000000     1.127000000    -4.753000000
O     0.912000000     1.400000000    -4.922000000
C     1.690000000     1.586000000    -3.753000000
H     1.135000000     1.151000000    -2.909000000
C     2.971000000     0.780000000    -3.576000000
C     4.133000000     1.280000000    -3.160000000
H     4.166000000     2.319000000    -2.843000000
C     2.927000000    -0.604000000    -3.894000000
H     1.945000000    -1.029000000    -4.088000000
C     4.065000000    -1.387000000    -3.738000000
O     4.087000000    -2.755000000    -3.768000000
C     5.248000000    -0.858000000    -3.295000000
H     6.132000000    -1.468000000    -3.132000000
C     5.310000000     0.535000000    -2.947000000
O     6.422000000     1.141000000    -2.448000000
C     6.464000000     1.968000000    -1.331000000
C     6.189000000     1.493000000    -0.100000000
H     5.997000000     0.430000000     0.023000000
C     6.563000000     3.332000000    -1.532000000
H     6.741000000     3.710000000    -2.536000000
C     6.522000000     4.177000000    -0.365000000
H     6.689000000     5.236000000    -0.547000000
C     6.225000000     3.606000000     0.897000000
H     6.250000000     4.220000000     1.794000000
C     5.904000000     2.289000000     0.975000000
O     5.468000000     1.720000000     2.188000000
C     4.342000000     2.154000000     2.855000000
C     4.129000000     1.864000000     4.197000000
H     4.851000000     1.320000000     4.801000000
C     2.852000000     2.150000000     4.746000000
O     2.638000000     1.743000000     6.080000000
C     1.503000000     1.500000000     6.773000000
C     0.961000000     0.274000000     6.776000000
H     1.437000000    -0.597000000     6.333000000
C     0.875000000     2.566000000     7.328000000
H     1.369000000     3.533000000     7.387000000
C    -0.441000000     2.429000000     7.811000000
H    -0.975000000     3.164000000     8.407000000
C    -0.956000000     1.138000000     7.864000000
H    -1.919000000     0.963000000     8.337000000
C    -0.294000000     0.047000000     7.410000000
O    -0.985000000    -1.185000000     7.293000000
C    -1.292000000    -1.561000000     5.978000000
C    -0.879000000    -2.825000000     5.505000000
H    -0.249000000    -3.484000000     6.098000000
C    -1.121000000    -3.158000000     4.152000000
O    -0.723000000    -4.350000000     3.581000000
C    -1.531000000    -5.051000000     2.856000000
C    -1.156000000    -5.500000000     1.497000000
H    -0.302000000    -5.011000000     1.036000000
C    -2.629000000    -5.655000000     3.453000000
H    -2.777000000    -5.343000000     4.484000000
C    -3.563000000    -6.398000000     2.722000000
H    -4.464000000    -6.814000000     3.164000000
C    -3.186000000    -6.837000000     1.445000000
H    -3.760000000    -7.555000000     0.866000000
C    -2.025000000    -6.368000000     0.829000000
O    -1.762000000    -6.767000000    -0.450000000
C    -1.446000000    -5.880000000    -1.485000000
C    -0.664000000    -6.285000000    -2.504000000
H    -0.438000000    -7.344000000    -2.600000000
C    -0.351000000    -5.505000000    -3.592000000
O     0.584000000    -5.888000000    -4.508000000
C     1.533000000    -5.052000000    -5.015000000
C     1.721000000    -5.043000000    -6.374000000
H     1.084000000    -5.673000000    -6.990000000
C     2.742000000    -4.203000000    -6.844000000
H     2.964000000    -4.151000000    -7.907000000
C     3.495000000    -3.379000000    -6.000000000
H     4.248000000    -2.737000000    -6.449000000
C     3.266000000    -3.452000000    -4.629000000
C     2.238000000    -4.235000000    -4.129000000
H     2.013000000    -4.334000000    -3.070000000
C     1.656000000    -2.861000000     1.211000000
H     1.854000000    -3.860000000     0.830000000
C     0.967000000    -1.991000000     0.324000000
H     0.828000000    -2.289000000    -0.712000000
C     0.475000000    -0.773000000     0.807000000
C    -0.280000000     0.105000000    -0.143000000
H    -1.085000000     0.737000000     0.241000000
H     0.408000000     0.791000000    -0.640000000
H    -0.653000000    -0.508000000    -0.966000000
C     0.797000000    -0.388000000     2.129000000
H     0.541000000     0.627000000     2.419000000
C     1.384000000    -1.286000000     2.984000000
H     1.401000000    -1.031000000     4.041000000
C     1.811000000    -2.539000000     2.565000000
C     2.667000000    -3.342000000     3.480000000
O     2.665000000    -3.149000000     4.667000000
O     3.288000000    -4.291000000     2.999000000
O     7.036000000    -3.664000000     5.299000000
H     7.238000000    -3.570000000     6.230000000
H     6.309000000    -4.286000000     5.274000000
O     2.701000000    -4.576000000     6.804000000
H     2.604000000    -4.008000000     6.040000000
H     2.333000000    -4.069000000     7.528000000
O     6.973000000    -5.429000000    -0.207000000
H     7.888000000    -5.389000000     0.071000000
H     6.491000000    -4.989000000     0.493000000
O     2.284000000    -6.881000000     8.097000000
H     1.471000000    -7.265000000     7.770000000
H     2.455000000    -6.144000000     7.510000000
O     4.573000000    -1.762000000     5.851000000
H     3.849000000    -2.224000000     5.429000000
H     5.250000000    -1.711000000     5.177000000
O     3.496000000    -6.683000000     1.578000000
H     4.263000000    -7.086000000     1.985000000
H     3.368000000    -5.868000000     2.063000000
O     4.067000000    -8.783000000     5.697000000
H     3.315000000    -9.332000000     5.920000000
H     3.696000000    -8.068000000     5.180000000
O     3.895000000    -5.999000000    -1.078000000
H     3.973000000    -5.857000000    -0.134000000
H     3.400000000    -6.814000000    -1.157000000
O     6.079000000    -2.932000000     8.204000000
H     5.527000000    -2.488000000     7.561000000
H     5.799000000    -3.846000000     8.171000000
O     1.722000000    -6.723000000     4.423000000
H     1.138000000    -7.220000000     3.850000000
H     1.971000000    -5.957000000     3.905000000
O     7.192000000    -6.764000000     3.654000000
H     6.747000000    -7.517000000     3.266000000
H     6.506000000    -6.103000000     3.749000000
O     4.398000000    -1.322000000     0.512000000
H     4.599000000    -1.957000000    -0.175000000
H     3.445000000    -1.240000000     0.492000000
O     4.783000000    -5.287000000     5.040000000
H     4.354000000    -4.855000000     4.301000000
H     4.227000000    -5.084000000     5.792000000
O     5.232000000    -3.379000000    -1.021000000
H     6.024000000    -3.916000000    -0.970000000
H     4.597000000    -3.932000000    -1.476000000
O     0.054000000    -6.514000000     6.530000000
H     0.697000000    -6.560000000     5.822000000
H    -0.514000000    -7.271000000     6.386000000
O     1.743000000    -8.242000000    -0.266000000
H     2.160000000    -7.557000000     0.256000000
H     0.895000000    -8.382000000     0.155000000
O     5.669000000    -4.008000000     2.054000000
H     4.832000000    -3.928000000     2.512000000
H     6.185000000    -3.265000000     2.368000000
O     6.448000000    -0.882000000     2.447000000
H     6.341000000     0.063000000     2.335000000
H     5.953000000    -1.266000000     1.723000000
O     5.576000000     0.238000000     7.248000000
H     4.881000000    -0.414000000     7.162000000
H     5.119000000     1.047000000     7.479000000
