218
-1475.32983
C     3.302000000     3.154000000     2.668000000
H     2.603000000     3.718000000     3.281000000
C     3.219000000     3.279000000     1.281000000
C     4.161000000     2.624000000     0.435000000
H     3.960000000     2.617000000    -0.633000000
C     1.925000000     3.872000000     0.688000000
O     1.303000000     4.854000000     1.545000000
H     1.230000000     3.030000000     0.552000000
O     2.151000000     4.544000000    -0.615000000
C     1.302000000     4.215000000    -1.625000000
C     1.783000000     3.487000000    -2.684000000
H     2.832000000     3.206000000    -2.726000000
C     0.880000000     2.896000000    -3.629000000
O     1.377000000     1.887000000    -4.451000000
C    -0.437000000     3.303000000    -3.626000000
C    -1.299000000     2.798000000    -4.682000000
H    -2.064000000     3.576000000    -4.637000000
C    -1.984000000     1.515000000    -4.187000000
C    -3.179000000     1.593000000    -3.474000000
H    -3.743000000     2.509000000    -3.315000000
H    -0.893000000     2.737000000    -5.694000000
C    -0.883000000     4.181000000    -2.656000000
H    -1.936000000     4.441000000    -2.586000000
C    -0.003000000     4.742000000    -1.672000000
C    -0.490000000     5.698000000    -0.598000000
H    -1.281000000     6.350000000    -0.975000000
H     0.305000000     6.384000000    -0.299000000
C    -0.979000000     5.005000000     0.723000000
C    -2.262000000     4.546000000     0.838000000
H    -2.880000000     4.777000000    -0.026000000
C    -0.046000000     4.667000000     1.672000000
C    -0.474000000     3.888000000     2.734000000
H     0.313000000     3.493000000     3.371000000
C    -1.731000000     3.369000000     2.843000000
O    -2.013000000     2.479000000     3.833000000
C    -2.107000000     1.079000000     3.421000000
C    -1.326000000     0.067000000     4.363000000
C    -1.379000000    -1.316000000     4.130000000
H    -2.035000000    -1.693000000     3.349000000
C    -0.548000000     0.523000000     5.397000000
H    -0.485000000     1.592000000     5.582000000
O    -3.487000000     0.677000000     3.219000000
H    -1.630000000     0.877000000     2.451000000
C    -2.690000000     3.728000000     1.836000000
C    -4.125000000     3.138000000     1.822000000
H    -4.728000000     3.943000000     1.397000000
H    -4.511000000     3.053000000     2.840000000
C    -4.259000000     1.799000000     1.216000000
C    -4.660000000     1.718000000    -0.143000000
H    -4.842000000     2.653000000    -0.666000000
C    -4.059000000     0.628000000     1.970000000
C    -4.311000000    -0.582000000     1.344000000
H    -4.148000000    -1.463000000     1.960000000
C    -4.682000000    -0.706000000    -0.019000000
O    -4.723000000    -1.987000000    -0.532000000
C    -3.548000000    -2.339000000    -1.363000000
C    -3.099000000    -3.713000000    -1.136000000
C    -3.287000000    -4.254000000     0.162000000
H    -3.774000000    -3.618000000     0.897000000
C    -2.331000000    -4.340000000    -2.083000000
H    -2.086000000    -4.003000000    -3.087000000
O    -3.741000000    -2.012000000    -2.722000000
H    -2.714000000    -1.760000000    -0.941000000
C    -4.805000000     0.483000000    -0.783000000
C    -5.112000000     0.559000000    -2.288000000
H    -5.610000000     1.499000000    -2.533000000
H    -5.732000000    -0.307000000    -2.528000000
C    -3.780000000     0.461000000    -2.980000000
C    -3.103000000    -0.833000000    -3.107000000
C    -1.904000000    -0.879000000    -3.837000000
H    -1.370000000    -1.813000000    -3.991000000
C    -1.378000000     0.305000000    -4.291000000
O    -0.174000000     0.184000000    -4.901000000
C     1.074000000     0.489000000    -4.264000000
H     0.945000000     0.403000000    -3.175000000
C     2.256000000    -0.482000000    -4.463000000
C     3.572000000    -0.147000000    -4.214000000
H     3.814000000     0.886000000    -3.978000000
C     1.894000000    -1.773000000    -4.698000000
H     0.831000000    -1.999000000    -4.714000000
C     2.878000000    -2.792000000    -4.603000000
O     2.628000000    -4.144000000    -4.738000000
C     4.204000000    -2.421000000    -4.444000000
H     4.984000000    -3.171000000    -4.340000000
C     4.606000000    -1.108000000    -4.366000000
O     5.939000000    -0.885000000    -4.062000000
C     6.357000000     0.052000000    -3.178000000
C     6.017000000    -0.017000000    -1.802000000
H     5.470000000    -0.839000000    -1.347000000
C     7.043000000     1.199000000    -3.596000000
H     7.279000000     1.366000000    -4.644000000
C     7.246000000     2.275000000    -2.726000000
H     7.712000000     3.188000000    -3.089000000
C     6.968000000     2.154000000    -1.377000000
H     7.273000000     2.971000000    -0.728000000
C     6.264000000     1.066000000    -0.994000000
O     5.931000000     0.916000000     0.335000000
C     5.166000000     1.834000000     1.075000000
C     5.237000000     1.729000000     2.446000000
H     6.029000000     1.145000000     2.908000000
C     4.303000000     2.387000000     3.249000000
O     4.381000000     2.204000000     4.606000000
C     3.410000000     2.357000000     5.527000000
C     2.613000000     1.231000000     5.824000000
H     2.636000000     0.321000000     5.230000000
C     3.288000000     3.529000000     6.278000000
H     3.883000000     4.414000000     6.068000000
C     2.411000000     3.588000000     7.365000000
H     2.115000000     4.555000000     7.765000000
C     1.700000000     2.432000000     7.704000000
H     0.978000000     2.548000000     8.509000000
C     1.802000000     1.278000000     6.926000000
O     0.971000000     0.170000000     7.206000000
C     0.097000000    -0.344000000     6.296000000
C    -0.023000000    -1.740000000     6.153000000
H     0.558000000    -2.428000000     6.762000000
C    -0.773000000    -2.223000000     5.094000000
O    -0.888000000    -3.566000000     4.989000000
C    -1.963000000    -4.186000000     4.381000000
C    -1.879000000    -4.898000000     3.231000000
H    -0.938000000    -4.838000000     2.690000000
C    -3.118000000    -4.275000000     5.163000000
H    -2.988000000    -3.986000000     6.203000000
C    -4.214000000    -5.042000000     4.784000000
H    -5.078000000    -5.129000000     5.438000000
C    -4.138000000    -5.674000000     3.561000000
H    -4.971000000    -6.271000000     3.199000000
C    -3.008000000    -5.558000000     2.751000000
O    -3.011000000    -6.239000000     1.560000000
C    -2.853000000    -5.538000000     0.411000000
C    -2.333000000    -6.283000000    -0.663000000
H    -2.126000000    -7.321000000    -0.419000000
C    -1.963000000    -5.631000000    -1.823000000
O    -1.197000000    -6.389000000    -2.685000000
C    -0.513000000    -5.885000000    -3.775000000
C    -1.004000000    -6.307000000    -5.045000000
H    -1.968000000    -6.803000000    -5.124000000
C    -0.275000000    -5.923000000    -6.196000000
H    -0.726000000    -6.240000000    -7.132000000
C     0.962000000    -5.256000000    -6.049000000
H     1.516000000    -5.068000000    -6.965000000
C     1.371000000    -4.728000000    -4.842000000
C     0.636000000    -5.103000000    -3.721000000
H     0.957000000    -4.771000000    -2.736000000
C     1.877000000    -1.626000000    -0.558000000
H     2.820000000    -1.670000000    -1.096000000
C     1.201000000    -0.432000000    -0.682000000
H     1.724000000     0.432000000    -1.084000000
C    -0.100000000    -0.308000000    -0.168000000
C    -0.990000000     0.910000000    -0.392000000
H    -0.721000000     1.471000000    -1.289000000
H    -2.041000000     0.620000000    -0.339000000
H    -0.785000000     1.590000000     0.438000000
C    -0.588000000    -1.325000000     0.663000000
H    -1.537000000    -1.201000000     1.178000000
C     0.049000000    -2.546000000     0.759000000
H    -0.352000000    -3.352000000     1.368000000
C     1.245000000    -2.756000000     0.075000000
C     2.011000000    -4.041000000    -0.002000000
O     1.481000000    -5.114000000     0.332000000
O     3.251000000    -4.109000000    -0.246000000
O     3.707000000    -8.080000000     1.428000000
H     4.468000000    -8.427000000     0.962000000
H     3.112000000    -7.794000000     0.736000000
O     4.459000000    -5.090000000     2.186000000
H     4.024000000    -4.609000000     1.482000000
H     5.016000000    -5.724000000     1.734000000
O     3.783000000    -5.573000000     5.991000000
H     3.229000000    -5.201000000     5.305000000
H     4.667000000    -5.547000000     5.625000000
O     1.550000000    -6.613000000     2.460000000
H     1.685000000    -6.056000000     1.694000000
H     2.314000000    -7.189000000     2.475000000
O     3.138000000    -7.501000000    -3.633000000
H     3.746000000    -8.237000000    -3.577000000
H     3.566000000    -6.799000000    -3.143000000
O     3.830000000    -9.900000000     3.456000000
H     3.534000000   -10.663000000     2.960000000
H     3.818000000    -9.183000000     2.822000000
O     4.341000000    -2.701000000     3.576000000
H     4.605000000    -3.621000000     3.559000000
H     3.411000000    -2.723000000     3.803000000
O     0.317000000    -9.087000000    -2.844000000
H     0.288000000    -9.838000000    -2.250000000
H     0.765000000    -8.404000000    -2.345000000
O     4.829000000    -2.434000000     0.798000000
H     4.243000000    -3.023000000     0.323000000
H     4.586000000    -2.546000000     1.718000000
O     6.860000000    -1.332000000     4.456000000
H     6.009000000    -1.713000000     4.239000000
H     7.118000000    -0.857000000     3.666000000
O     7.082000000    -4.067000000    -2.862000000
H     7.916000000    -3.630000000    -2.691000000
H     7.305000000    -4.791000000    -3.447000000
O     0.546000000    -6.772000000     5.086000000
H     0.792000000    -6.746000000     4.161000000
H     1.372000000    -6.654000000     5.556000000
O     1.898000000    -4.225000000     4.235000000
H     1.060000000    -4.562000000     4.552000000
H     1.950000000    -4.526000000     3.328000000
O     6.905000000    -4.841000000     0.355000000
H     6.429000000    -4.028000000     0.188000000
H     7.799000000    -4.660000000     0.065000000
O     2.071000000    -7.649000000    -0.979000000
H     1.764000000    -6.743000000    -0.932000000
H     2.742000000    -7.639000000    -1.663000000
O     0.016000000    -8.384000000     0.927000000
H     0.770000000    -8.320000000     0.341000000
H     0.076000000    -7.607000000     1.481000000
O     4.617000000    -5.695000000    -2.245000000
H     5.398000000    -5.165000000    -2.406000000
H     4.163000000    -5.244000000    -1.534000000
O     7.815000000    -5.101000000     2.843000000
H     7.592000000    -4.812000000     1.958000000
H     8.756000000    -5.272000000     2.809000000
O     5.779000000    -7.458000000    -0.243000000
H     5.593000000    -7.156000000    -1.132000000
H     6.223000000    -6.719000000     0.173000000
