218
-1452.21094
C    -3.934000000    -2.278000000    -3.014000000
H    -4.422000000    -1.413000000    -3.458000000
C    -3.818000000    -2.306000000    -1.624000000
C    -3.357000000    -3.459000000    -1.051000000
H    -3.265000000    -3.506000000     0.031000000
C    -3.968000000    -1.057000000    -0.837000000
O    -4.718000000    -0.095000000    -1.589000000
H    -2.967000000    -0.631000000    -0.673000000
O    -4.631000000    -1.235000000     0.405000000
C    -4.224000000    -0.572000000     1.531000000
C    -3.446000000    -1.298000000     2.420000000
H    -3.395000000    -2.373000000     2.267000000
C    -2.909000000    -0.719000000     3.538000000
O    -2.067000000    -1.428000000     4.288000000
C    -3.121000000     0.648000000     3.806000000
C    -2.292000000     1.391000000     4.936000000
H    -2.721000000     2.354000000     5.219000000
C    -0.845000000     1.656000000     4.469000000
C    -0.489000000     2.937000000     4.083000000
H    -1.181000000     3.765000000     4.215000000
H    -2.313000000     0.886000000     5.904000000
C    -3.988000000     1.360000000     2.973000000
H    -4.045000000     2.441000000     3.074000000
C    -4.474000000     0.769000000     1.785000000
C    -5.203000000     1.636000000     0.800000000
H    -5.690000000     2.475000000     1.302000000
H    -6.044000000     1.082000000     0.378000000
C    -4.341000000     2.059000000    -0.305000000
C    -3.543000000     3.169000000    -0.268000000
H    -3.470000000     3.692000000     0.682000000
C    -4.244000000     1.234000000    -1.471000000
C    -3.483000000     1.682000000    -2.512000000
H    -3.293000000     1.057000000    -3.381000000
C    -2.698000000     2.866000000    -2.440000000
O    -1.667000000     3.001000000    -3.415000000
C    -0.334000000     2.764000000    -2.968000000
C     0.359000000     2.051000000    -4.171000000
C     1.743000000     2.218000000    -4.321000000
H     2.348000000     2.940000000    -3.778000000
C    -0.393000000     1.310000000    -5.044000000
H    -1.434000000     1.057000000    -4.860000000
O     0.288000000     4.034000000    -2.678000000
H    -0.497000000     2.065000000    -2.133000000
C    -2.753000000     3.619000000    -1.264000000
C    -1.948000000     4.878000000    -1.084000000
H    -2.523000000     5.550000000    -0.444000000
H    -1.859000000     5.435000000    -2.019000000
C    -0.566000000     4.627000000    -0.504000000
C    -0.457000000     4.737000000     0.895000000
H    -1.327000000     4.963000000     1.506000000
C     0.487000000     4.314000000    -1.289000000
C     1.763000000     4.090000000    -0.770000000
H     2.592000000     3.771000000    -1.397000000
C     1.820000000     4.123000000     0.592000000
O     3.059000000     3.737000000     0.982000000
C     3.018000000     2.453000000     1.604000000
C     4.194000000     1.541000000     1.124000000
C     4.780000000     1.681000000    -0.117000000
H     4.320000000     2.387000000    -0.804000000
C     4.625000000     0.529000000     1.981000000
H     4.030000000     0.274000000     2.855000000
O     2.981000000     2.560000000     3.038000000
H     2.051000000     1.990000000     1.356000000
C     0.746000000     4.491000000     1.440000000
C     0.932000000     4.613000000     2.943000000
H     0.176000000     5.315000000     3.300000000
H     1.929000000     4.979000000     3.195000000
C     0.793000000     3.287000000     3.636000000
C     1.784000000     2.332000000     3.642000000
C     1.484000000     1.032000000     4.079000000
H     2.226000000     0.248000000     3.956000000
C     0.175000000     0.686000000     4.356000000
O    -0.018000000    -0.537000000     4.760000000
C    -0.671000000    -1.417000000     3.852000000
H    -0.583000000    -1.078000000     2.809000000
C    -0.078000000    -2.847000000     3.865000000
C    -0.763000000    -3.940000000     3.519000000
H    -1.798000000    -3.859000000     3.195000000
C     1.332000000    -2.882000000     4.199000000
H     1.921000000    -1.992000000     4.407000000
C     1.936000000    -4.167000000     4.322000000
O     3.265000000    -4.264000000     4.555000000
C     1.150000000    -5.276000000     4.009000000
H     1.513000000    -6.296000000     4.100000000
C    -0.110000000    -5.179000000     3.487000000
O    -0.767000000    -6.384000000     3.279000000
C    -1.795000000    -6.448000000     2.288000000
C    -1.536000000    -6.011000000     0.968000000
H    -0.510000000    -5.774000000     0.698000000
C    -3.023000000    -6.764000000     2.722000000
H    -3.190000000    -6.891000000     3.788000000
C    -4.140000000    -6.577000000     1.903000000
H    -5.191000000    -6.733000000     2.130000000
C    -3.860000000    -6.304000000     0.567000000
H    -4.676000000    -6.244000000    -0.148000000
C    -2.565000000    -5.933000000     0.098000000
O    -2.323000000    -5.658000000    -1.225000000
C    -2.825000000    -4.480000000    -1.821000000
C    -2.878000000    -4.379000000    -3.197000000
H    -2.428000000    -5.099000000    -3.875000000
C    -3.535000000    -3.369000000    -3.834000000
O    -3.553000000    -3.329000000    -5.197000000
C    -3.294000000    -2.172000000    -5.873000000
C    -1.958000000    -1.838000000    -6.159000000
H    -1.172000000    -2.528000000    -5.865000000
C    -4.281000000    -1.247000000    -6.161000000
H    -5.281000000    -1.552000000    -5.862000000
C    -3.952000000    -0.007000000    -6.748000000
H    -4.753000000     0.716000000    -6.878000000
C    -2.681000000     0.343000000    -6.906000000
H    -2.417000000     1.342000000    -7.242000000
C    -1.684000000    -0.628000000    -6.741000000
O    -0.380000000    -0.118000000    -6.945000000
C     0.290000000     0.589000000    -6.022000000
C     1.652000000     0.647000000    -6.224000000
H     2.114000000     0.148000000    -7.072000000
C     2.374000000     1.580000000    -5.401000000
O     3.682000000     1.849000000    -5.671000000
C     4.618000000     2.330000000    -4.730000000
C     5.112000000     1.455000000    -3.729000000
H     4.698000000     0.452000000    -3.783000000
C     5.139000000     3.617000000    -4.761000000
H     4.866000000     4.320000000    -5.544000000
C     5.964000000     4.036000000    -3.691000000
H     6.278000000     5.075000000    -3.745000000
C     6.519000000     3.172000000    -2.758000000
H     7.219000000     3.559000000    -2.022000000
C     6.082000000     1.885000000    -2.758000000
O     6.519000000     1.076000000    -1.727000000
C     5.849000000     0.886000000    -0.523000000
C     6.287000000    -0.100000000     0.358000000
H     7.163000000    -0.693000000     0.106000000
C     5.730000000    -0.201000000     1.586000000
O     6.175000000    -1.247000000     2.373000000
C     5.526000000    -1.657000000     3.474000000
C     5.717000000    -0.866000000     4.606000000
H     6.393000000    -0.015000000     4.591000000
C     4.961000000    -1.278000000     5.739000000
H     4.836000000    -0.598000000     6.578000000
C     4.249000000    -2.441000000     5.749000000
H     3.645000000    -2.777000000     6.588000000
C     4.136000000    -3.185000000     4.596000000
C     4.769000000    -2.802000000     3.428000000
H     4.685000000    -3.478000000     2.581000000
C     0.683000000    -3.013000000    -1.040000000
H     0.603000000    -3.669000000    -1.903000000
C     0.099000000    -1.678000000    -1.046000000
H    -0.454000000    -1.377000000    -1.932000000
C     0.362000000    -0.808000000     0.004000000
C    -0.184000000     0.587000000     0.056000000
H    -1.229000000     0.594000000    -0.259000000
H    -0.089000000     0.822000000     1.118000000
H     0.458000000     1.246000000    -0.533000000
C     1.348000000    -1.152000000     0.963000000
H     1.526000000    -0.465000000     1.787000000
C     1.881000000    -2.422000000     0.999000000
H     2.601000000    -2.631000000     1.786000000
C     1.568000000    -3.403000000    -0.028000000
C     2.166000000    -4.852000000    -0.058000000
O     2.932000000    -5.142000000     0.818000000
O     1.947000000    -5.573000000    -1.015000000
O     3.179000000    -1.087000000    -1.772000000
H     2.243000000    -0.884000000    -1.764000000
H     3.316000000    -1.615000000    -0.985000000
O     6.814000000    -5.641000000    -0.362000000
H     6.080000000    -6.145000000    -0.712000000
H     6.429000000    -4.803000000    -0.106000000
O     7.841000000    -3.665000000     1.645000000
H     7.727000000    -4.494000000     1.181000000
H     8.516000000    -3.203000000     1.148000000
O     1.725000000    -8.158000000     0.811000000
H     2.165000000    -7.322000000     0.657000000
H     1.016000000    -8.178000000     0.167000000
O     5.600000000    -5.629000000    -3.181000000
H     5.755000000    -5.952000000    -4.068000000
H     4.800000000    -6.074000000    -2.900000000
O     6.684000000    -7.687000000     3.252000000
H     7.093000000    -7.787000000     2.393000000
H     5.860000000    -7.235000000     3.075000000
O    -0.559000000    -9.911000000    -0.973000000
H    -0.021000000   -10.503000000    -1.498000000
H    -0.139000000    -9.056000000    -1.067000000
O     3.659000000    -9.698000000    -0.941000000
H     3.499000000   -10.504000000    -1.432000000
H     2.930000000    -9.646000000    -0.322000000
O     0.191000000    -7.450000000    -1.467000000
H     1.004000000    -6.953000000    -1.373000000
H    -0.369000000    -6.892000000    -2.008000000
O     2.264000000    -8.290000000    -4.211000000
H     1.332000000    -8.505000000    -4.256000000
H     2.700000000    -9.023000000    -4.645000000
O     2.070000000    -9.613000000     3.056000000
H     1.983000000    -9.049000000     2.287000000
H     2.415000000    -9.036000000     3.738000000
O     4.369000000    -7.068000000    -1.081000000
H     3.587000000    -6.546000000    -0.904000000
H     4.036000000    -7.952000000    -1.238000000
O     4.008000000    -6.886000000     2.643000000
H     3.602000000    -6.646000000     3.476000000
H     3.527000000    -6.381000000     1.988000000
O     3.379000000    -2.950000000    -3.905000000
H     3.078000000    -3.800000000    -3.584000000
H     3.391000000    -2.390000000    -3.128000000
O     4.991000000    -3.751000000    -0.003000000
H     4.226000000    -4.252000000     0.281000000
H     5.128000000    -3.107000000     0.692000000
O    -0.599000000   -10.398000000     1.718000000
H    -0.476000000   -10.430000000     0.770000000
H     0.207000000   -10.004000000     2.051000000
O     2.187000000    -4.873000000    -6.433000000
H     2.411000000    -4.615000000    -5.539000000
H     1.426000000    -5.445000000    -6.334000000
O     7.322000000    -3.535000000    -2.769000000
H     8.097000000    -3.999000000    -2.453000000
H     6.623000000    -4.188000000    -2.740000000
O     2.368000000    -5.469000000    -3.620000000
H     2.200000000    -6.400000000    -3.765000000
H     2.198000000    -5.337000000    -2.687000000
