218
-1471.42709
C     4.354000000     2.572000000     1.714000000
H     3.703000000     3.044000000     2.446000000
C     4.049000000     2.572000000     0.332000000
C     4.870000000     1.858000000    -0.576000000
H     4.595000000     1.717000000    -1.619000000
C     2.811000000     3.283000000    -0.164000000
O     2.338000000     4.250000000     0.904000000
H     1.958000000     2.604000000    -0.305000000
O     2.958000000     3.895000000    -1.501000000
C     1.921000000     3.793000000    -2.398000000
C     2.014000000     2.691000000    -3.274000000
H     2.901000000     2.069000000    -3.367000000
C     0.917000000     2.342000000    -4.039000000
O     1.015000000     1.230000000    -4.917000000
C    -0.280000000     3.046000000    -4.004000000
C    -1.586000000     2.695000000    -4.780000000
H    -2.273000000     3.540000000    -4.863000000
C    -2.341000000     1.540000000    -4.175000000
C    -3.379000000     1.785000000    -3.292000000
H    -3.825000000     2.766000000    -3.150000000
H    -1.360000000     2.420000000    -5.812000000
C    -0.341000000     4.122000000    -3.096000000
H    -1.317000000     4.537000000    -2.858000000
C     0.728000000     4.532000000    -2.290000000
C     0.477000000     5.491000000    -1.168000000
H    -0.225000000     6.218000000    -1.581000000
H     1.399000000     6.077000000    -1.160000000
C     0.054000000     4.858000000     0.193000000
C    -1.307000000     4.830000000     0.463000000
H    -1.896000000     5.320000000    -0.309000000
C     1.017000000     4.443000000     1.143000000
C     0.484000000     3.747000000     2.249000000
H     1.151000000     3.284000000     2.972000000
C    -0.864000000     3.686000000     2.519000000
O    -1.262000000     2.920000000     3.594000000
C    -1.848000000     1.583000000     3.352000000
C    -1.244000000     0.540000000     4.228000000
C    -2.112000000    -0.344000000     4.946000000
H    -3.187000000    -0.260000000     4.810000000
C     0.136000000     0.418000000     4.415000000
H     0.769000000     1.144000000     3.911000000
O    -3.307000000     1.667000000     3.381000000
H    -1.551000000     1.309000000     2.329000000
C    -1.831000000     4.207000000     1.599000000
C    -3.309000000     4.075000000     1.811000000
H    -3.741000000     4.907000000     1.251000000
H    -3.521000000     4.258000000     2.866000000
C    -3.877000000     2.755000000     1.354000000
C    -4.314000000     2.624000000     0.065000000
H    -4.232000000     3.426000000    -0.664000000
C    -3.809000000     1.614000000     2.122000000
C    -4.266000000     0.343000000     1.716000000
H    -3.992000000    -0.490000000     2.358000000
C    -4.897000000     0.279000000     0.508000000
O    -5.119000000    -0.973000000    -0.069000000
C    -3.902000000    -1.453000000    -0.581000000
C    -3.377000000    -2.758000000     0.042000000
C    -3.959000000    -3.373000000     1.151000000
H    -4.957000000    -3.105000000     1.488000000
C    -2.317000000    -3.384000000    -0.569000000
H    -2.000000000    -2.933000000    -1.506000000
O    -4.078000000    -1.578000000    -2.005000000
H    -3.096000000    -0.732000000    -0.381000000
C    -4.848000000     1.421000000    -0.381000000
C    -5.313000000     1.251000000    -1.799000000
H    -5.693000000     2.154000000    -2.280000000
H    -6.132000000     0.529000000    -1.772000000
C    -4.122000000     0.749000000    -2.695000000
C    -3.770000000    -0.553000000    -2.851000000
C    -2.670000000    -0.814000000    -3.652000000
H    -2.234000000    -1.810000000    -3.669000000
C    -1.968000000     0.200000000    -4.286000000
O    -0.863000000    -0.248000000    -4.986000000
C     0.408000000     0.037000000    -4.375000000
H     0.336000000     0.140000000    -3.282000000
C     1.318000000    -1.155000000    -4.554000000
C     2.726000000    -0.979000000    -4.522000000
H     3.044000000     0.045000000    -4.341000000
C     0.782000000    -2.447000000    -4.645000000
H    -0.269000000    -2.664000000    -4.473000000
C     1.651000000    -3.491000000    -4.848000000
O     1.155000000    -4.780000000    -5.019000000
C     3.057000000    -3.289000000    -4.985000000
H     3.664000000    -4.144000000    -5.270000000
C     3.598000000    -2.048000000    -4.727000000
O     4.949000000    -1.890000000    -4.858000000
C     5.695000000    -0.971000000    -4.209000000
C     5.766000000    -0.811000000    -2.811000000
H     5.135000000    -1.277000000    -2.059000000
C     6.557000000    -0.258000000    -4.998000000
H     6.543000000    -0.362000000    -6.080000000
C     7.435000000     0.722000000    -4.439000000
H     8.106000000     1.328000000    -5.042000000
C     7.448000000     0.913000000    -3.048000000
H     8.142000000     1.575000000    -2.536000000
C     6.611000000     0.146000000    -2.228000000
O     6.706000000     0.273000000    -0.899000000
C     6.011000000     1.185000000    -0.118000000
C     6.339000000     1.307000000     1.191000000
H     7.186000000     0.740000000     1.570000000
C     5.562000000     1.940000000     2.111000000
O     5.777000000     1.692000000     3.451000000
C     4.875000000     1.507000000     4.462000000
C     4.025000000     0.472000000     4.417000000
H     4.243000000    -0.293000000     3.675000000
C     4.849000000     2.445000000     5.473000000
H     5.556000000     3.269000000     5.430000000
C     3.964000000     2.273000000     6.494000000
H     4.114000000     2.977000000     7.308000000
C     3.012000000     1.297000000     6.402000000
H     2.277000000     1.163000000     7.192000000
C     3.041000000     0.344000000     5.386000000
O     2.115000000    -0.677000000     5.352000000
C     0.698000000    -0.545000000     5.213000000
C    -0.145000000    -1.316000000     6.006000000
H     0.263000000    -2.054000000     6.692000000
C    -1.537000000    -1.301000000     5.796000000
O    -2.270000000    -2.155000000     6.603000000
C    -3.236000000    -2.956000000     6.071000000
C    -3.145000000    -3.382000000     4.759000000
H    -2.266000000    -3.134000000     4.169000000
C    -4.375000000    -3.218000000     6.784000000
H    -4.498000000    -2.775000000     7.769000000
C    -5.331000000    -4.109000000     6.287000000
H    -6.113000000    -4.404000000     6.982000000
C    -5.267000000    -4.583000000     4.943000000
H    -6.015000000    -5.192000000     4.442000000
C    -4.149000000    -4.188000000     4.149000000
O    -4.081000000    -4.823000000     2.895000000
C    -3.338000000    -4.406000000     1.852000000
C    -2.241000000    -5.017000000     1.231000000
H    -1.825000000    -5.856000000     1.784000000
C    -1.711000000    -4.572000000     0.027000000
O    -0.740000000    -5.380000000    -0.589000000
C    -0.751000000    -5.605000000    -1.950000000
C    -1.908000000    -6.169000000    -2.592000000
H    -2.628000000    -6.678000000    -1.956000000
C    -2.060000000    -6.152000000    -3.976000000
H    -2.971000000    -6.465000000    -4.482000000
C    -1.078000000    -5.594000000    -4.775000000
H    -1.209000000    -5.571000000    -5.854000000
C     0.143000000    -5.188000000    -4.209000000
C     0.268000000    -5.174000000    -2.795000000
H     1.051000000    -4.649000000    -2.255000000
C     1.986000000    -1.378000000    -0.297000000
H     2.897000000    -1.759000000    -0.754000000
C     1.322000000    -0.196000000    -0.747000000
H     1.819000000     0.452000000    -1.466000000
C     0.108000000     0.154000000    -0.207000000
C    -0.629000000     1.352000000    -0.691000000
H    -0.533000000     1.619000000    -1.746000000
H    -1.675000000     1.336000000    -0.377000000
H    -0.150000000     2.119000000    -0.079000000
C    -0.517000000    -0.633000000     0.713000000
H    -1.513000000    -0.338000000     1.035000000
C     0.128000000    -1.818000000     1.176000000
H    -0.393000000    -2.561000000     1.775000000
C     1.367000000    -2.183000000     0.635000000
C     2.032000000    -3.468000000     0.950000000
O     1.648000000    -4.149000000     1.897000000
O     2.924000000    -3.796000000     0.264000000
O     4.987000000    -4.645000000     3.859000000
H     4.799000000    -4.080000000     3.110000000
H     4.127000000    -4.936000000     4.162000000
O     2.384000000    -3.592000000     4.537000000
H     2.116000000    -3.841000000     3.653000000
H     2.325000000    -2.636000000     4.545000000
O     7.338000000    -5.472000000    -0.044000000
H     6.636000000    -6.049000000     0.256000000
H     8.075000000    -5.673000000     0.533000000
O     3.592000000    -4.190000000     7.083000000
H     4.503000000    -3.901000000     7.032000000
H     3.349000000    -4.376000000     6.176000000
O     6.782000000    -1.405000000     4.496000000
H     7.652000000    -1.802000000     4.487000000
H     6.259000000    -1.959000000     3.916000000
O     5.919000000    -4.406000000    -3.880000000
H     5.619000000    -4.343000000    -2.973000000
H     5.574000000    -3.618000000    -4.301000000
O    -0.686000000    -7.777000000     3.002000000
H    -0.954000000    -7.209000000     3.725000000
H    -1.500000000    -7.977000000     2.541000000
O     2.757000000    -6.467000000     4.948000000
H     1.930000000    -6.245000000     5.377000000
H     2.592000000    -6.319000000     4.017000000
O     5.051000000    -3.974000000    -1.213000000
H     4.261000000    -3.762000000    -0.716000000
H     5.772000000    -3.704000000    -0.644000000
O    -2.326000000    -6.577000000     5.131000000
H    -1.756000000    -5.886000000     4.792000000
H    -3.205000000    -6.321000000     4.850000000
O     4.478000000    -8.565000000     2.547000000
H     4.233000000    -7.702000000     2.213000000
H     4.100000000    -9.181000000     1.919000000
O     6.797000000    -6.482000000     3.106000000
H     6.195000000    -5.770000000     3.322000000
H     6.229000000    -7.220000000     2.888000000
O    -0.332000000    -4.945000000     3.971000000
H     0.038000000    -4.224000000     3.461000000
H     0.187000000    -4.960000000     4.775000000
O     1.892000000    -6.704000000     2.236000000
H     1.942000000    -5.757000000     2.109000000
H     0.954000000    -6.895000000     2.244000000
O     7.093000000    -2.418000000    -0.012000000
H     7.805000000    -3.047000000    -0.132000000
H     7.430000000    -1.601000000    -0.380000000
O     2.552000000    -6.664000000    -0.538000000
H     2.175000000    -7.121000000     0.214000000
H     2.605000000    -5.749000000    -0.260000000
O     5.194000000    -6.763000000    -0.879000000
H     5.079000000    -5.817000000    -0.965000000
H     4.308000000    -7.103000000    -0.758000000
O     1.667000000    -8.171000000    -2.651000000
H     0.899000000    -8.194000000    -2.079000000
H     2.364000000    -7.812000000    -2.101000000
O     5.109000000    -2.692000000     1.779000000
H     4.364000000    -2.929000000     1.227000000
H     5.771000000    -2.375000000     1.164000000
