218
-1457.80115
C     4.649000000     2.625000000     0.993000000
H     3.991000000     2.933000000     1.802000000
C     4.255000000     2.924000000    -0.297000000
C     5.101000000     2.506000000    -1.358000000
H     4.923000000     2.811000000    -2.386000000
C     2.834000000     3.531000000    -0.507000000
O     2.477000000     4.403000000     0.567000000
H     2.163000000     2.673000000    -0.350000000
O     2.630000000     4.064000000    -1.822000000
C     1.449000000     3.811000000    -2.494000000
C     1.426000000     2.776000000    -3.386000000
H     2.266000000     2.112000000    -3.575000000
C     0.200000000     2.377000000    -3.963000000
O     0.216000000     1.228000000    -4.663000000
C    -1.019000000     3.049000000    -3.738000000
C    -2.394000000     2.698000000    -4.336000000
H    -2.967000000     3.600000000    -4.115000000
C    -3.020000000     1.532000000    -3.593000000
C    -4.011000000     1.811000000    -2.713000000
H    -4.325000000     2.837000000    -2.539000000
H    -2.303000000     2.583000000    -5.418000000
C    -0.914000000     4.198000000    -2.804000000
H    -1.781000000     4.827000000    -2.619000000
C     0.296000000     4.525000000    -2.179000000
C     0.222000000     5.525000000    -1.056000000
H    -0.644000000     6.166000000    -1.232000000
H     1.096000000     6.173000000    -1.141000000
C     0.126000000     4.905000000     0.355000000
C    -1.099000000     4.839000000     0.999000000
H    -1.946000000     5.354000000     0.552000000
C     1.217000000     4.383000000     1.068000000
C     1.016000000     3.748000000     2.294000000
H     1.844000000     3.311000000     2.848000000
C    -0.265000000     3.580000000     2.814000000
O    -0.450000000     2.819000000     3.941000000
C    -0.987000000     1.549000000     3.739000000
C    -0.243000000     0.443000000     4.460000000
C    -0.950000000    -0.535000000     5.207000000
H    -2.026000000    -0.673000000     5.134000000
C     1.154000000     0.589000000     4.676000000
H     1.639000000     1.479000000     4.283000000
O    -2.414000000     1.642000000     4.038000000
H    -0.931000000     1.358000000     2.657000000
C    -1.321000000     4.158000000     2.189000000
C    -2.819000000     4.100000000     2.565000000
H    -3.310000000     4.981000000     2.147000000
H    -3.042000000     4.262000000     3.622000000
C    -3.411000000     2.745000000     2.111000000
C    -4.128000000     2.601000000     0.936000000
H    -4.197000000     3.465000000     0.281000000
C    -3.180000000     1.603000000     2.905000000
C    -3.648000000     0.333000000     2.519000000
H    -3.397000000    -0.563000000     3.082000000
C    -4.418000000     0.239000000     1.366000000
O    -4.739000000    -0.997000000     1.018000000
C    -3.951000000    -1.529000000    -0.062000000
C    -3.510000000    -2.977000000     0.214000000
C    -3.263000000    -3.384000000     1.522000000
H    -3.271000000    -2.768000000     2.417000000
C    -3.252000000    -3.838000000    -0.846000000
H    -3.623000000    -3.621000000    -1.844000000
O    -4.614000000    -1.502000000    -1.324000000
H    -3.013000000    -0.956000000    -0.120000000
C    -4.580000000     1.361000000     0.516000000
C    -5.416000000     1.264000000    -0.713000000
H    -5.969000000     2.192000000    -0.874000000
H    -6.231000000     0.567000000    -0.506000000
C    -4.514000000     0.861000000    -1.858000000
C    -4.206000000    -0.475000000    -2.101000000
C    -3.242000000    -0.855000000    -3.114000000
H    -2.946000000    -1.883000000    -3.307000000
C    -2.667000000     0.202000000    -3.827000000
O    -1.666000000    -0.113000000    -4.662000000
C    -0.299000000     0.060000000    -4.099000000
H    -0.350000000     0.264000000    -3.019000000
C     0.610000000    -1.166000000    -4.234000000
C     1.845000000    -1.258000000    -3.709000000
H     2.240000000    -0.329000000    -3.306000000
C     0.101000000    -2.371000000    -4.737000000
H    -0.923000000    -2.506000000    -5.074000000
C     0.846000000    -3.521000000    -4.658000000
O     0.322000000    -4.739000000    -5.020000000
C     2.187000000    -3.572000000    -4.225000000
H     2.759000000    -4.496000000    -4.229000000
C     2.643000000    -2.436000000    -3.661000000
O     3.887000000    -2.387000000    -3.089000000
C     4.748000000    -1.372000000    -3.533000000
C     5.407000000    -0.527000000    -2.616000000
H     5.121000000    -0.709000000    -1.584000000
C     5.099000000    -1.199000000    -4.858000000
H     4.690000000    -1.842000000    -5.633000000
C     5.907000000    -0.168000000    -5.299000000
H     6.136000000    -0.086000000    -6.359000000
C     6.665000000     0.443000000    -4.364000000
H     7.471000000     1.069000000    -4.738000000
C     6.408000000     0.336000000    -3.012000000
O     6.996000000     1.328000000    -2.200000000
C     6.295000000     1.780000000    -1.139000000
C     6.637000000     1.527000000     0.206000000
H     7.517000000     0.917000000     0.388000000
C     5.827000000     2.006000000     1.200000000
O     6.281000000     1.756000000     2.478000000
C     5.500000000     1.884000000     3.546000000
C     4.772000000     0.769000000     3.970000000
H     4.731000000    -0.161000000     3.408000000
C     5.515000000     3.097000000     4.287000000
H     5.984000000     3.991000000     3.885000000
C     4.624000000     3.254000000     5.401000000
H     4.663000000     4.168000000     5.988000000
C     3.981000000     2.119000000     5.818000000
H     3.580000000     2.048000000     6.826000000
C     3.949000000     0.938000000     5.098000000
O     3.286000000    -0.199000000     5.614000000
C     1.867000000    -0.303000000     5.401000000
C     1.191000000    -1.350000000     6.065000000
H     1.791000000    -2.008000000     6.689000000
C    -0.202000000    -1.527000000     5.882000000
O    -0.829000000    -2.466000000     6.648000000
C    -1.885000000    -3.114000000     6.073000000
C    -1.638000000    -3.888000000     4.966000000
H    -0.660000000    -3.873000000     4.493000000
C    -3.160000000    -2.842000000     6.477000000
H    -3.342000000    -2.065000000     7.215000000
C    -4.252000000    -3.579000000     5.836000000
H    -5.261000000    -3.433000000     6.214000000
C    -3.899000000    -4.336000000     4.695000000
H    -4.686000000    -4.834000000     4.134000000
C    -2.629000000    -4.447000000     4.244000000
O    -2.387000000    -4.970000000     3.036000000
C    -2.806000000    -4.639000000     1.803000000
C    -2.609000000    -5.472000000     0.765000000
H    -2.346000000    -6.511000000     0.950000000
C    -2.778000000    -5.117000000    -0.545000000
O    -2.792000000    -6.062000000    -1.567000000
C    -2.413000000    -5.888000000    -2.883000000
C    -3.251000000    -6.509000000    -3.833000000
H    -4.224000000    -6.834000000    -3.473000000
C    -2.769000000    -6.608000000    -5.140000000
H    -3.256000000    -7.229000000    -5.887000000
C    -1.562000000    -5.956000000    -5.531000000
H    -1.182000000    -6.101000000    -6.539000000
C    -0.859000000    -5.254000000    -4.593000000
C    -1.217000000    -5.248000000    -3.267000000
H    -0.564000000    -4.836000000    -2.502000000
C     2.485000000    -0.993000000     0.105000000
H     3.416000000    -0.955000000    -0.454000000
C     1.402000000    -0.143000000    -0.228000000
H     1.460000000     0.404000000    -1.166000000
C     0.214000000    -0.107000000     0.483000000
C    -0.941000000     0.786000000     0.149000000
H    -0.675000000     1.816000000     0.397000000
H    -1.210000000     0.894000000    -0.904000000
H    -1.858000000     0.503000000     0.671000000
C     0.092000000    -0.993000000     1.599000000
H    -0.926000000    -1.169000000     1.939000000
C     1.189000000    -1.796000000     1.964000000
H     1.045000000    -2.457000000     2.815000000
C     2.415000000    -1.818000000     1.265000000
C     3.583000000    -2.682000000     1.793000000
O     3.400000000    -3.575000000     2.607000000
O     4.658000000    -2.659000000     1.180000000
O     1.902000000    -4.697000000     4.324000000
H     2.397000000    -4.291000000     3.612000000
H     2.544000000    -4.819000000     5.023000000
O     9.042000000    -3.441000000     3.646000000
H     8.755000000    -2.541000000     3.801000000
H     8.252000000    -3.897000000     3.354000000
O     6.767000000    -1.579000000     6.564000000
H     5.935000000    -2.000000000     6.348000000
H     6.552000000    -0.971000000     7.271000000
O     4.466000000    -6.630000000    -2.231000000
H     4.507000000    -5.699000000    -2.010000000
H     4.411000000    -7.074000000    -1.385000000
O     0.951000000    -6.876000000    -0.333000000
H     1.037000000    -6.104000000    -0.893000000
H     1.824000000    -7.000000000     0.040000000
O     8.395000000    -1.008000000     4.506000000
H     8.912000000    -0.205000000     4.568000000
H     7.742000000    -0.926000000     5.202000000
O     1.151000000    -4.727000000     7.443000000
H     0.967000000    -4.747000000     6.504000000
H     0.340000000    -5.030000000     7.853000000
O     4.435000000    -2.988000000     5.734000000
H     4.168000000    -3.873000000     5.982000000
H     4.546000000    -3.028000000     4.784000000
O     7.252000000    -1.602000000     1.295000000
H     6.394000000    -2.025000000     1.347000000
H     7.168000000    -0.824000000     1.845000000
O     2.656000000    -6.213000000     1.693000000
H     1.761000000    -5.940000000     1.897000000
H     3.145000000    -5.393000000     1.621000000
O     8.152000000    -4.697000000    -1.725000000
H     7.755000000    -4.939000000    -2.562000000
H     7.747000000    -5.286000000    -1.088000000
O     1.537000000    -4.172000000    -1.163000000
H     2.318000000    -4.060000000    -1.705000000
H     1.674000000    -3.584000000    -0.421000000
O     4.337000000    -4.114000000    -1.065000000
H     4.995000000    -3.512000000    -1.413000000
H     4.273000000    -3.890000000    -0.137000000
O     4.536000000    -7.909000000     3.530000000
H     3.881000000    -8.579000000     3.334000000
H     4.030000000    -7.102000000     3.631000000
O     7.834000000    -6.330000000     0.643000000
H     8.791000000    -6.346000000     0.660000000
H     7.590000000    -5.748000000     1.362000000
O     8.966000000    -2.435000000    -0.527000000
H     8.601000000    -3.243000000    -0.886000000
H     8.257000000    -2.065000000    -0.002000000
O     3.891000000    -5.616000000     6.347000000
H     3.826000000    -5.922000000     7.252000000
H     4.768000000    -5.878000000     6.068000000
O     5.359000000    -7.703000000     0.271000000
H     6.133000000    -7.216000000     0.555000000
H     4.988000000    -8.055000000     1.080000000
O     6.482000000    -4.479000000     2.525000000
H     5.968000000    -4.921000000     3.201000000
H     5.860000000    -3.890000000     2.098000000
