218
-1470.68308
C     4.379000000     0.851000000    -0.315000000
H     3.901000000     1.471000000     0.439000000
C     4.099000000     1.058000000    -1.679000000
C     4.606000000     0.169000000    -2.631000000
H     4.279000000     0.326000000    -3.655000000
C     3.008000000     1.948000000    -2.039000000
O     3.280000000     3.257000000    -1.553000000
H     2.105000000     1.489000000    -1.612000000
O     2.799000000     2.313000000    -3.443000000
C     1.527000000     1.998000000    -3.900000000
C     1.178000000     0.745000000    -4.342000000
H     1.895000000    -0.070000000    -4.385000000
C    -0.184000000     0.527000000    -4.650000000
O    -0.615000000    -0.776000000    -4.878000000
C    -1.119000000     1.607000000    -4.527000000
C    -2.541000000     1.287000000    -4.804000000
H    -3.172000000     2.078000000    -5.214000000
C    -3.244000000     0.866000000    -3.536000000
C    -3.659000000     1.853000000    -2.556000000
H    -3.464000000     2.901000000    -2.768000000
H    -2.702000000     0.491000000    -5.534000000
C    -0.703000000     2.863000000    -4.015000000
H    -1.476000000     3.608000000    -3.844000000
C     0.607000000     3.045000000    -3.781000000
C     1.001000000     4.378000000    -3.124000000
H     0.217000000     5.033000000    -3.511000000
H     1.908000000     4.855000000    -3.500000000
C     1.056000000     4.416000000    -1.661000000
C    -0.063000000     4.853000000    -0.965000000
H    -1.026000000     5.062000000    -1.424000000
C     2.192000000     3.891000000    -0.944000000
C     2.165000000     3.879000000     0.429000000
H     2.965000000     3.424000000     1.006000000
C     1.000000000     4.387000000     1.094000000
O     0.995000000     4.317000000     2.501000000
C     0.397000000     3.196000000     3.072000000
C     1.133000000     2.528000000     4.211000000
C     0.415000000     1.896000000     5.211000000
H    -0.658000000     2.068000000     5.245000000
C     2.537000000     2.545000000     4.242000000
H     3.055000000     3.095000000     3.460000000
O    -0.996000000     3.453000000     3.431000000
H     0.424000000     2.397000000     2.317000000
C    -0.083000000     4.940000000     0.426000000
C    -1.296000000     5.333000000     1.236000000
H    -1.914000000     6.051000000     0.692000000
H    -0.981000000     5.701000000     2.215000000
C    -2.208000000     4.174000000     1.417000000
C    -3.182000000     3.829000000     0.455000000
H    -3.311000000     4.355000000    -0.488000000
C    -2.022000000     3.271000000     2.480000000
C    -2.939000000     2.197000000     2.691000000
H    -2.783000000     1.542000000     3.544000000
C    -3.970000000     2.018000000     1.846000000
O    -4.668000000     0.878000000     1.906000000
C    -4.160000000    -0.238000000     1.149000000
C    -3.997000000    -1.483000000     2.018000000
C    -3.249000000    -1.463000000     3.164000000
H    -2.936000000    -0.516000000     3.597000000
C    -4.502000000    -2.737000000     1.522000000
H    -5.014000000    -2.694000000     0.564000000
O    -4.943000000    -0.441000000     0.010000000
H    -3.160000000    -0.062000000     0.726000000
C    -4.020000000     2.766000000     0.694000000
C    -5.017000000     2.372000000    -0.442000000
H    -5.302000000     3.326000000    -0.891000000
H    -5.896000000     1.784000000    -0.171000000
C    -4.337000000     1.426000000    -1.448000000
C    -4.439000000     0.073000000    -1.196000000
C    -3.900000000    -0.847000000    -2.028000000
H    -3.996000000    -1.885000000    -1.722000000
C    -3.327000000    -0.494000000    -3.221000000
O    -2.588000000    -1.465000000    -3.799000000
C    -1.155000000    -1.455000000    -3.771000000
H    -0.957000000    -0.933000000    -2.823000000
C    -0.573000000    -2.876000000    -3.621000000
C     0.707000000    -3.139000000    -4.029000000
H     1.266000000    -2.379000000    -4.569000000
C    -1.365000000    -3.911000000    -3.030000000
H    -2.377000000    -3.685000000    -2.704000000
C    -0.806000000    -5.210000000    -2.915000000
O    -1.523000000    -6.271000000    -2.346000000
C     0.461000000    -5.466000000    -3.422000000
H     0.854000000    -6.479000000    -3.394000000
C     1.201000000    -4.503000000    -4.032000000
O     2.428000000    -4.783000000    -4.560000000
C     3.457000000    -3.888000000    -4.780000000
C     4.128000000    -3.186000000    -3.719000000
H     3.867000000    -3.219000000    -2.664000000
C     3.792000000    -3.639000000    -6.055000000
H     3.343000000    -4.212000000    -6.863000000
C     4.914000000    -2.824000000    -6.306000000
H     5.255000000    -2.753000000    -7.335000000
C     5.585000000    -2.134000000    -5.346000000
H     6.508000000    -1.579000000    -5.492000000
C     5.212000000    -2.359000000    -4.051000000
O     5.954000000    -1.790000000    -3.025000000
C     5.449000000    -0.833000000    -2.194000000
C     5.817000000    -0.978000000    -0.858000000
H     6.388000000    -1.782000000    -0.400000000
C     5.321000000    -0.071000000     0.119000000
O     5.552000000    -0.282000000     1.472000000
C     5.872000000     0.787000000     2.302000000
C     5.132000000     0.860000000     3.519000000
H     4.245000000     0.242000000     3.639000000
C     6.981000000     1.603000000     2.096000000
H     7.608000000     1.496000000     1.214000000
C     7.302000000     2.554000000     3.083000000
H     8.167000000     3.163000000     2.832000000
C     6.525000000     2.629000000     4.265000000
H     6.799000000     3.479000000     4.885000000
C     5.439000000     1.845000000     4.460000000
O     4.559000000     2.042000000     5.489000000
C     3.208000000     1.933000000     5.334000000
C     2.422000000     1.298000000     6.343000000
H     2.909000000     0.850000000     7.205000000
C     1.052000000     1.294000000     6.242000000
O     0.213000000     0.772000000     7.280000000
C    -0.959000000     0.119000000     6.948000000
C    -1.026000000    -0.941000000     6.022000000
H    -0.126000000    -1.362000000     5.581000000
C    -2.137000000     0.538000000     7.536000000
H    -2.047000000     1.383000000     8.214000000
C    -3.404000000     0.002000000     7.192000000
H    -4.406000000     0.231000000     7.544000000
C    -3.410000000    -1.070000000     6.306000000
H    -4.315000000    -1.570000000     5.971000000
C    -2.233000000    -1.645000000     5.836000000
O    -2.277000000    -2.705000000     4.995000000
C    -3.051000000    -2.686000000     3.794000000
C    -3.295000000    -3.870000000     3.213000000
H    -3.088000000    -4.776000000     3.777000000
C    -4.029000000    -3.911000000     2.036000000
O    -4.329000000    -5.149000000     1.527000000
C    -4.185000000    -5.505000000     0.188000000
C    -5.318000000    -5.874000000    -0.584000000
H    -6.246000000    -5.690000000    -0.050000000
C    -5.176000000    -6.318000000    -1.909000000
H    -6.030000000    -6.418000000    -2.573000000
C    -3.879000000    -6.420000000    -2.467000000
H    -3.759000000    -6.632000000    -3.526000000
C    -2.758000000    -6.067000000    -1.753000000
C    -2.932000000    -5.704000000    -0.367000000
H    -2.063000000    -5.510000000     0.255000000
C     2.180000000    -1.991000000     0.282000000
H     2.771000000    -2.619000000    -0.380000000
C     1.224000000    -1.180000000    -0.332000000
H     1.127000000    -1.247000000    -1.413000000
C     0.453000000    -0.391000000     0.533000000
C    -0.644000000     0.534000000     0.067000000
H    -1.312000000     0.117000000    -0.690000000
H    -1.229000000     1.029000000     0.845000000
H    -0.058000000     1.273000000    -0.483000000
C     0.733000000    -0.398000000     1.920000000
H     0.215000000     0.272000000     2.601000000
C     1.661000000    -1.354000000     2.450000000
H     1.604000000    -1.454000000     3.531000000
C     2.498000000    -2.097000000     1.609000000
C     3.492000000    -3.119000000     2.159000000
O     3.617000000    -3.201000000     3.425000000
O     3.979000000    -3.898000000     1.384000000
O     3.177000000    -5.984000000     7.343000000
H     2.298000000    -5.611000000     7.281000000
H     3.452000000    -6.102000000     6.434000000
O     5.760000000    -7.065000000     5.856000000
H     5.563000000    -6.134000000     5.761000000
H     6.599000000    -7.088000000     6.316000000
O     3.562000000    -5.805000000     4.619000000
H     3.501000000    -4.934000000     4.228000000
H     3.893000000    -6.361000000     3.914000000
O     6.481000000    -3.980000000     1.737000000
H     5.531000000    -3.882000000     1.667000000
H     6.682000000    -4.751000000     1.207000000
O     6.931000000    -7.254000000     3.286000000
H     6.525000000    -7.409000000     4.139000000
H     6.202000000    -7.271000000     2.666000000
O     2.744000000    -1.584000000     8.062000000
H     2.579000000    -1.882000000     7.167000000
H     2.623000000    -2.366000000     8.601000000
O     3.455000000    -5.577000000    -0.548000000
H     3.646000000    -5.063000000     0.237000000
H     2.970000000    -6.336000000    -0.226000000
O     7.307000000    -2.642000000     6.472000000
H     6.704000000    -2.864000000     5.762000000
H     6.899000000    -1.895000000     6.909000000
O     5.886000000    -5.464000000    -1.987000000
H     5.733000000    -5.822000000    -2.862000000
H     5.014000000    -5.402000000    -1.598000000
O    -0.175000000    -6.253000000     1.996000000
H     0.050000000    -5.549000000     1.387000000
H    -0.264000000    -5.817000000     2.843000000
O     2.533000000    -2.852000000     5.786000000
H     2.775000000    -3.035000000     4.878000000
H     3.144000000    -3.374000000     6.306000000
O     4.808000000    -6.781000000     1.835000000
H     4.070000000    -7.360000000     1.643000000
H     4.625000000    -5.986000000     1.334000000
O     8.048000000    -1.599000000     1.996000000
H     7.395000000    -0.933000000     2.211000000
H     7.550000000    -2.416000000     1.948000000
O     0.988000000    -8.387000000     3.418000000
H     0.991000000    -7.462000000     3.171000000
H     1.508000000    -8.422000000     4.220000000
O     0.186000000    -5.255000000     4.488000000
H    -0.316000000    -5.595000000     5.228000000
H     0.751000000    -4.583000000     4.871000000
O    -0.290000000    -3.790000000     0.797000000
H    -1.071000000    -3.351000000     0.458000000
H     0.388000000    -3.114000000     0.788000000
O     5.927000000    -4.100000000     4.492000000
H     5.115000000    -3.696000000     4.186000000
H     6.375000000    -4.375000000     3.693000000
O     2.511000000    -7.835000000     0.650000000
H     1.954000000    -8.340000000     1.243000000
H     2.219000000    -8.088000000    -0.225000000
O     7.546000000    -5.999000000     0.138000000
H     6.984000000    -5.966000000    -0.636000000
H     7.603000000    -6.930000000     0.354000000
