218
-1480.67112
C     4.613000000     0.382000000     0.540000000
H     3.953000000     0.841000000     1.270000000
C     4.659000000     0.980000000    -0.717000000
C     5.446000000     0.387000000    -1.738000000
H     5.507000000     0.768000000    -2.754000000
C     3.700000000     2.142000000    -1.083000000
O     3.845000000     3.353000000    -0.219000000
H     2.652000000     1.830000000    -0.963000000
O     3.802000000     2.397000000    -2.481000000
C     2.663000000     2.461000000    -3.218000000
C     2.446000000     1.374000000    -4.052000000
H     3.163000000     0.557000000    -4.036000000
C     1.153000000     1.205000000    -4.501000000
O     0.743000000    -0.089000000    -4.853000000
C     0.198000000     2.257000000    -4.435000000
C    -1.207000000     2.014000000    -4.952000000
H    -1.672000000     2.947000000    -5.276000000
C    -2.150000000     1.419000000    -3.900000000
C    -2.913000000     2.257000000    -3.091000000
H    -2.947000000     3.334000000    -3.231000000
H    -1.207000000     1.355000000    -5.823000000
C     0.530000000     3.375000000    -3.717000000
H    -0.309000000     4.043000000    -3.541000000
C     1.747000000     3.518000000    -3.067000000
C     2.180000000     4.739000000    -2.207000000
H     1.605000000     5.575000000    -2.611000000
H     3.252000000     4.896000000    -2.343000000
C     1.840000000     4.558000000    -0.713000000
C     0.633000000     5.062000000    -0.291000000
H    -0.020000000     5.586000000    -0.984000000
C     2.721000000     3.962000000     0.194000000
C     2.276000000     3.781000000     1.545000000
H     2.922000000     3.283000000     2.263000000
C     1.017000000     4.150000000     1.876000000
O     0.629000000     3.900000000     3.200000000
C    -0.396000000     2.868000000     3.458000000
C    -0.132000000     1.956000000     4.629000000
C    -1.122000000     1.690000000     5.577000000
H    -2.092000000     2.180000000     5.555000000
C     1.026000000     1.161000000     4.701000000
H     1.808000000     1.273000000     3.954000000
O    -1.763000000     3.387000000     3.433000000
H    -0.212000000     2.150000000     2.645000000
C     0.146000000     4.782000000     1.002000000
C    -1.255000000     5.141000000     1.318000000
H    -1.659000000     5.996000000     0.771000000
H    -1.237000000     5.513000000     2.344000000
C    -2.320000000     4.111000000     1.207000000
C    -3.049000000     3.902000000     0.020000000
H    -2.878000000     4.626000000    -0.772000000
C    -2.440000000     3.172000000     2.255000000
C    -3.370000000     2.128000000     2.134000000
H    -3.494000000     1.413000000     2.944000000
C    -4.121000000     1.962000000     0.992000000
O    -4.893000000     0.830000000     0.957000000
C    -4.245000000    -0.307000000     0.352000000
C    -4.563000000    -1.590000000     1.060000000
C    -4.574000000    -1.564000000     2.440000000
H    -4.744000000    -0.640000000     2.987000000
C    -4.320000000    -2.807000000     0.390000000
H    -4.152000000    -2.810000000    -0.683000000
O    -4.716000000    -0.376000000    -1.047000000
H    -3.154000000    -0.179000000     0.302000000
C    -3.950000000     2.826000000    -0.089000000
C    -4.578000000     2.607000000    -1.404000000
H    -4.687000000     3.589000000    -1.871000000
H    -5.605000000     2.245000000    -1.323000000
C    -3.818000000     1.716000000    -2.219000000
C    -3.977000000     0.305000000    -2.043000000
C    -3.097000000    -0.520000000    -2.823000000
H    -3.023000000    -1.567000000    -2.540000000
C    -2.228000000     0.035000000    -3.733000000
O    -1.334000000    -0.829000000    -4.338000000
C     0.029000000    -0.800000000    -3.908000000
H     0.126000000    -0.281000000    -2.943000000
C     0.569000000    -2.268000000    -3.881000000
C     1.886000000    -2.607000000    -4.261000000
H     2.462000000    -1.840000000    -4.772000000
C    -0.302000000    -3.245000000    -3.339000000
H    -1.306000000    -2.907000000    -3.092000000
C     0.183000000    -4.554000000    -3.309000000
O    -0.664000000    -5.639000000    -2.913000000
C     1.470000000    -4.881000000    -3.723000000
H     1.857000000    -5.895000000    -3.659000000
C     2.328000000    -3.936000000    -4.210000000
O     3.653000000    -4.358000000    -4.446000000
C     4.669000000    -3.488000000    -4.534000000
C     5.190000000    -2.892000000    -3.442000000
H     4.742000000    -3.082000000    -2.470000000
C     5.201000000    -3.255000000    -5.780000000
H     5.021000000    -3.928000000    -6.614000000
C     6.318000000    -2.425000000    -5.891000000
H     6.867000000    -2.183000000    -6.798000000
C     6.733000000    -1.695000000    -4.757000000
H     7.576000000    -1.031000000    -4.930000000
C     6.233000000    -1.958000000    -3.532000000
O     6.817000000    -1.445000000    -2.450000000
C     6.185000000    -0.745000000    -1.432000000
C     6.113000000    -1.287000000    -0.205000000
H     6.568000000    -2.253000000    -0.001000000
C     5.327000000    -0.781000000     0.773000000
O     5.286000000    -1.507000000     1.967000000
C     5.017000000    -0.685000000     3.130000000
C     3.933000000    -1.157000000     3.902000000
H     3.499000000    -2.107000000     3.603000000
C     5.642000000     0.561000000     3.394000000
H     6.334000000     0.914000000     2.633000000
C     5.167000000     1.338000000     4.409000000
H     5.756000000     2.238000000     4.565000000
C     4.130000000     0.866000000     5.173000000
H     3.909000000     1.335000000     6.128000000
C     3.436000000    -0.345000000     4.940000000
O     2.338000000    -0.598000000     5.695000000
C     1.197000000     0.227000000     5.733000000
C     0.193000000    -0.054000000     6.665000000
H     0.306000000    -0.793000000     7.454000000
C    -0.987000000     0.634000000     6.503000000
O    -2.138000000     0.209000000     7.255000000
C    -3.377000000    -0.099000000     6.663000000
C    -3.410000000    -1.226000000     5.872000000
H    -2.583000000    -1.904000000     5.674000000
C    -4.550000000     0.729000000     6.840000000
H    -4.485000000     1.594000000     7.496000000
C    -5.736000000     0.385000000     6.243000000
H    -6.643000000     0.981000000     6.309000000
C    -5.754000000    -0.771000000     5.404000000
H    -6.674000000    -1.063000000     4.904000000
C    -4.652000000    -1.558000000     5.289000000
O    -4.603000000    -2.718000000     4.499000000
C    -4.497000000    -2.741000000     3.144000000
C    -4.382000000    -3.985000000     2.525000000
H    -4.404000000    -4.899000000     3.113000000
C    -4.111000000    -4.000000000     1.190000000
O    -3.653000000    -5.201000000     0.695000000
C    -3.521000000    -5.355000000    -0.642000000
C    -4.624000000    -5.369000000    -1.468000000
H    -5.629000000    -5.147000000    -1.119000000
C    -4.316000000    -5.462000000    -2.853000000
H    -5.236000000    -5.463000000    -3.432000000
C    -2.996000000    -5.442000000    -3.339000000
H    -2.783000000    -5.465000000    -4.405000000
C    -1.920000000    -5.425000000    -2.448000000
C    -2.217000000    -5.453000000    -1.093000000
H    -1.396000000    -5.393000000    -0.383000000
C     1.366000000    -1.784000000     1.095000000
H     2.311000000    -2.303000000     0.953000000
C     1.030000000    -0.638000000     0.337000000
H     1.629000000    -0.308000000    -0.508000000
C    -0.102000000     0.091000000     0.585000000
C    -0.471000000     1.208000000    -0.380000000
H    -0.040000000     2.169000000    -0.091000000
H    -0.093000000     1.069000000    -1.395000000
H    -1.558000000     1.312000000    -0.383000000
C    -0.933000000    -0.270000000     1.703000000
H    -1.789000000     0.334000000     1.992000000
C    -0.575000000    -1.348000000     2.516000000
H    -1.158000000    -1.680000000     3.371000000
C     0.493000000    -2.109000000     2.158000000
C     0.788000000    -3.410000000     2.958000000
O     0.096000000    -3.750000000     3.903000000
O     1.629000000    -4.205000000     2.574000000
O     2.091000000    -7.202000000     6.849000000
H     2.132000000    -6.796000000     5.983000000
H     2.223000000    -6.478000000     7.460000000
O     2.288000000    -3.387000000     6.576000000
H     2.877000000    -4.093000000     6.311000000
H     2.407000000    -2.712000000     5.907000000
O     3.165000000    -6.443000000     0.471000000
H     3.461000000    -5.614000000     0.849000000
H     2.218000000    -6.446000000     0.614000000
O     5.861000000    -2.900000000     5.764000000
H     6.370000000    -2.899000000     6.574000000
H     5.384000000    -3.730000000     5.781000000
O    -0.657000000    -8.350000000     5.541000000
H     0.225000000    -8.030000000     5.353000000
H    -1.017000000    -8.576000000     4.683000000
O     5.967000000    -5.438000000    -0.582000000
H     5.450000000    -5.475000000     0.223000000
H     6.710000000    -6.018000000    -0.416000000
O    -1.267000000    -9.057000000     2.821000000
H    -2.041000000    -8.522000000     2.648000000
H    -1.488000000    -9.919000000     2.468000000
O    -3.454000000    -7.594000000     2.320000000
H    -3.397000000    -6.665000000     2.543000000
H    -3.487000000    -7.609000000     1.364000000
O    -0.494000000    -4.827000000     9.375000000
H    -0.492000000    -4.834000000     8.418000000
H    -1.380000000    -4.550000000     9.610000000
O    -0.398000000    -3.463000000     6.945000000
H    -0.757000000    -3.707000000     6.092000000
H     0.505000000    -3.206000000     6.760000000
O     4.284000000    -4.337000000     1.677000000
H     3.406000000    -4.253000000     2.049000000
H     4.575000000    -3.435000000     1.544000000
O     7.252000000    -3.896000000     3.014000000
H     7.232000000    -3.206000000     3.678000000
H     6.349000000    -4.208000000     2.966000000
O    -0.412000000    -8.785000000     0.048000000
H    -0.335000000    -7.995000000     0.582000000
H     0.459000000    -9.180000000     0.077000000
O     3.924000000    -6.947000000     3.225000000
H     2.984000000    -6.964000000     3.403000000
H     3.987000000    -6.788000000     2.284000000
O    -2.634000000    -6.043000000     6.022000000
H    -3.335000000    -5.762000000     6.610000000
H    -2.219000000    -6.775000000     6.478000000
O     1.214000000    -6.444000000     4.290000000
H     0.288000000    -6.583000000     4.090000000
H     1.381000000    -5.537000000     4.037000000
O    -1.307000000    -5.969000000     3.419000000
H    -0.927000000    -5.091000000     3.417000000
H    -1.811000000    -6.010000000     4.231000000
O     4.215000000    -5.172000000     6.079000000
H     4.437000000    -5.606000000     6.903000000
H     4.473000000    -5.798000000     5.402000000
O     0.401000000    -6.162000000     1.167000000
H    -0.299000000    -6.376000000     1.784000000
H     0.839000000    -5.404000000     1.555000000
