218
-1453.09798
C     3.836000000     2.401000000     1.115000000
H     2.836000000     2.439000000     1.540000000
C     4.088000000     2.756000000    -0.174000000
C     5.356000000     2.511000000    -0.696000000
H     5.605000000     2.789000000    -1.717000000
C     2.961000000     3.319000000    -0.939000000
O     2.454000000     4.523000000    -0.388000000
H     2.214000000     2.534000000    -0.746000000
O     3.278000000     3.394000000    -2.361000000
C     2.370000000     2.770000000    -3.174000000
C     2.544000000     1.462000000    -3.520000000
H     3.529000000     1.062000000    -3.296000000
C     1.602000000     0.831000000    -4.308000000
O     1.780000000    -0.479000000    -4.695000000
C     0.365000000     1.523000000    -4.602000000
C    -0.744000000     0.793000000    -5.284000000
H    -1.338000000     1.553000000    -5.796000000
C    -1.617000000    -0.002000000    -4.413000000
C    -2.836000000     0.503000000    -3.929000000
H    -3.251000000     1.458000000    -4.240000000
H    -0.273000000     0.205000000    -6.075000000
C     0.150000000     2.812000000    -4.045000000
H    -0.808000000     3.323000000    -4.088000000
C     1.215000000     3.467000000    -3.492000000
C     1.049000000     4.819000000    -2.829000000
H     0.497000000     5.515000000    -3.463000000
H     2.043000000     5.262000000    -2.738000000
C     0.316000000     4.763000000    -1.540000000
C    -1.099000000     4.789000000    -1.512000000
H    -1.613000000     4.814000000    -2.469000000
C     1.033000000     4.696000000    -0.389000000
C     0.381000000     4.464000000     0.812000000
H     0.907000000     4.343000000     1.756000000
C    -0.990000000     4.393000000     0.835000000
O    -1.521000000     4.111000000     2.079000000
C    -2.057000000     2.815000000     2.317000000
C    -1.824000000     2.286000000     3.720000000
C    -2.713000000     1.402000000     4.367000000
H    -3.563000000     1.055000000     3.786000000
C    -0.577000000     2.537000000     4.396000000
H     0.168000000     3.141000000     3.885000000
O    -3.471000000     2.912000000     2.177000000
H    -1.697000000     2.014000000     1.655000000
C    -1.762000000     4.532000000    -0.332000000
C    -3.244000000     4.386000000    -0.292000000
H    -3.626000000     4.827000000    -1.215000000
H    -3.559000000     5.075000000     0.494000000
C    -3.802000000     2.973000000    -0.157000000
C    -4.098000000     2.276000000    -1.316000000
H    -3.903000000     2.720000000    -2.289000000
C    -4.000000000     2.340000000     1.040000000
C    -4.344000000     0.998000000     1.163000000
H    -4.446000000     0.468000000     2.107000000
C    -4.689000000     0.343000000    -0.020000000
O    -4.921000000    -0.955000000     0.086000000
C    -3.792000000    -1.810000000    -0.352000000
C    -3.581000000    -3.042000000     0.519000000
C    -3.905000000    -2.914000000     1.890000000
H    -4.519000000    -2.070000000     2.193000000
C    -2.922000000    -4.196000000     0.037000000
H    -2.644000000    -4.169000000    -1.014000000
O    -3.959000000    -2.250000000    -1.749000000
H    -2.838000000    -1.265000000    -0.322000000
C    -4.664000000     1.034000000    -1.241000000
C    -4.941000000     0.320000000    -2.587000000
H    -5.330000000     1.032000000    -3.319000000
H    -5.752000000    -0.407000000    -2.512000000
C    -3.660000000    -0.312000000    -3.071000000
C    -3.214000000    -1.551000000    -2.678000000
C    -2.027000000    -2.088000000    -3.135000000
H    -1.720000000    -3.068000000    -2.777000000
C    -1.263000000    -1.331000000    -4.017000000
O    -0.076000000    -1.869000000    -4.482000000
C     1.135000000    -1.452000000    -3.802000000
H     0.711000000    -1.001000000    -2.893000000
C     2.117000000    -2.582000000    -3.370000000
C     3.404000000    -2.266000000    -2.815000000
H     3.740000000    -1.240000000    -2.940000000
C     1.575000000    -3.849000000    -3.259000000
H     0.497000000    -3.981000000    -3.301000000
C     2.418000000    -4.854000000    -2.749000000
O     1.972000000    -6.130000000    -2.452000000
C     3.653000000    -4.550000000    -2.216000000
H     4.110000000    -5.360000000    -1.654000000
C     4.194000000    -3.282000000    -2.314000000
O     5.351000000    -3.072000000    -1.724000000
C     6.173000000    -2.038000000    -1.991000000
C     6.243000000    -0.989000000    -1.163000000
H     5.783000000    -1.034000000    -0.179000000
C     6.739000000    -2.010000000    -3.288000000
H     6.554000000    -2.925000000    -3.846000000
C     7.575000000    -0.949000000    -3.609000000
H     8.101000000    -1.059000000    -4.554000000
C     7.674000000     0.123000000    -2.687000000
H     8.346000000     0.944000000    -2.926000000
C     7.048000000     0.115000000    -1.507000000
O     7.341000000     1.175000000    -0.703000000
C     6.338000000     1.786000000     0.054000000
C     5.978000000     1.386000000     1.288000000
H     6.682000000     0.763000000     1.833000000
C     4.805000000     1.771000000     1.906000000
O     4.414000000     1.429000000     3.155000000
C     3.833000000     2.407000000     4.041000000
C     2.732000000     1.964000000     4.777000000
H     2.364000000     0.977000000     4.509000000
C     4.199000000     3.774000000     4.159000000
H     4.993000000     4.128000000     3.506000000
C     3.505000000     4.557000000     5.075000000
H     3.822000000     5.583000000     5.245000000
C     2.527000000     4.024000000     5.882000000
H     2.111000000     4.568000000     6.725000000
C     2.006000000     2.780000000     5.669000000
O     0.846000000     2.350000000     6.358000000
C    -0.316000000     2.058000000     5.686000000
C    -1.310000000     1.280000000     6.336000000
H    -1.106000000     0.938000000     7.347000000
C    -2.525000000     1.014000000     5.699000000
O    -3.457000000     0.276000000     6.423000000
C    -4.166000000    -0.884000000     5.999000000
C    -3.547000000    -1.958000000     5.282000000
H    -2.479000000    -2.052000000     5.103000000
C    -5.530000000    -0.839000000     6.196000000
H    -5.905000000    -0.008000000     6.788000000
C    -6.366000000    -1.875000000     5.781000000
H    -7.425000000    -1.657000000     5.890000000
C    -5.828000000    -2.959000000     5.101000000
H    -6.575000000    -3.653000000     4.725000000
C    -4.410000000    -3.025000000     4.890000000
O    -3.873000000    -4.011000000     4.153000000
C    -3.510000000    -3.926000000     2.792000000
C    -2.860000000    -5.040000000     2.302000000
H    -2.663000000    -5.907000000     2.929000000
C    -2.492000000    -5.164000000     0.973000000
O    -1.765000000    -6.254000000     0.627000000
C    -1.228000000    -6.452000000    -0.691000000
C    -2.047000000    -6.732000000    -1.759000000
H    -3.110000000    -6.866000000    -1.573000000
C    -1.563000000    -6.932000000    -3.009000000
H    -2.344000000    -7.172000000    -3.726000000
C    -0.218000000    -6.736000000    -3.241000000
H     0.190000000    -6.963000000    -4.223000000
C     0.633000000    -6.292000000    -2.252000000
C     0.118000000    -6.268000000    -0.936000000
H     0.746000000    -6.001000000    -0.090000000
C     2.244000000    -0.893000000     0.640000000
H     3.301000000    -1.051000000     0.445000000
C     1.433000000    -0.253000000    -0.296000000
H     1.884000000     0.262000000    -1.140000000
C     0.082000000     0.000000000    -0.029000000
C    -0.718000000     0.889000000    -0.992000000
H    -0.106000000     1.421000000    -1.724000000
H    -1.474000000     0.264000000    -1.473000000
H    -1.279000000     1.689000000    -0.504000000
C    -0.498000000    -0.524000000     1.110000000
H    -1.527000000    -0.369000000     1.423000000
C     0.337000000    -1.252000000     2.025000000
H    -0.123000000    -1.622000000     2.938000000
C     1.669000000    -1.321000000     1.851000000
C     2.527000000    -2.068000000     2.870000000
O     2.048000000    -2.202000000     3.964000000
O     3.757000000    -2.181000000     2.636000000
O     1.065000000    -4.663000000     4.062000000
H     1.542000000    -3.858000000     4.264000000
H     1.651000000    -5.151000000     3.484000000
O     4.715000000    -3.910000000     1.149000000
H     4.454000000    -3.172000000     1.700000000
H     4.671000000    -3.569000000     0.256000000
O     0.564000000    -7.944000000     2.972000000
H     0.734000000    -7.034000000     2.729000000
H     0.880000000    -8.454000000     2.226000000
O     4.780000000    -1.760000000     7.136000000
H     4.603000000    -1.431000000     6.255000000
H     4.599000000    -1.016000000     7.711000000
O     2.859000000    -6.423000000     6.857000000
H     2.853000000    -5.693000000     6.237000000
H     2.041000000    -6.889000000     6.685000000
O     7.481000000    -2.944000000     5.844000000
H     6.831000000    -2.286000000     6.090000000
H     7.044000000    -3.474000000     5.177000000
O     5.781000000    -4.640000000     3.996000000
H     5.183000000    -4.350000000     4.685000000
H     5.261000000    -4.597000000     3.194000000
O     2.905000000    -5.923000000     1.834000000
H     3.547000000    -5.258000000     1.586000000
H     3.394000000    -6.745000000     1.821000000
O     9.154000000    -0.683000000     1.663000000
H     9.284000000    -0.217000000     2.489000000
H     8.460000000    -1.314000000     1.852000000
O     6.345000000     1.383000000     6.546000000
H     7.040000000     0.815000000     6.877000000
H     5.553000000     0.847000000     6.595000000
O     7.365000000    -5.070000000     0.309000000
H     8.225000000    -4.655000000     0.242000000
H     6.805000000    -4.400000000     0.703000000
O     1.906000000    -2.724000000     7.996000000
H     1.567000000    -2.135000000     8.670000000
H     1.531000000    -2.394000000     7.180000000
O    -0.880000000    -3.681000000     6.713000000
H    -0.784000000    -4.260000000     5.956000000
H    -0.484000000    -2.856000000     6.434000000
O     7.205000000    -1.916000000     3.180000000
H     6.346000000    -2.024000000     2.773000000
H     7.068000000    -1.250000000     3.854000000
O    -0.848000000    -6.315000000     5.196000000
H    -1.172000000    -7.095000000     4.746000000
H    -0.089000000    -6.040000000     4.682000000
O     4.020000000    -3.859000000     5.711000000
H     3.314000000    -3.357000000     5.306000000
H     4.415000000    -3.254000000     6.339000000
O     4.557000000    -0.800000000     4.763000000
H     4.682000000     0.005000000     4.260000000
H     4.152000000    -1.408000000     4.145000000
O     0.425000000    -1.479000000     5.821000000
H     0.041000000    -0.656000000     5.518000000
H     1.139000000    -1.650000000     5.207000000
O     7.404000000    -6.010000000     5.695000000
H     8.295000000    -5.663000000     5.642000000
H     6.913000000    -5.509000000     5.045000000
