218
-1456.15084
C     4.626000000     0.873000000     2.059000000
H     4.056000000     1.686000000     2.502000000
C     4.685000000     0.873000000     0.650000000
C     5.422000000    -0.135000000     0.002000000
H     5.394000000    -0.221000000    -1.081000000
C     3.880000000     1.883000000    -0.217000000
O     3.935000000     3.221000000     0.341000000
H     2.835000000     1.549000000    -0.135000000
O     4.235000000     2.027000000    -1.558000000
C     3.335000000     2.160000000    -2.614000000
C     3.000000000     0.974000000    -3.295000000
H     3.517000000     0.030000000    -3.142000000
C     1.896000000     1.011000000    -4.127000000
O     1.625000000    -0.246000000    -4.702000000
C     1.163000000     2.155000000    -4.375000000
C    -0.014000000     2.054000000    -5.316000000
H    -0.178000000     2.983000000    -5.866000000
C    -1.279000000     1.457000000    -4.662000000
C    -2.099000000     2.297000000    -3.916000000
H    -1.946000000     3.372000000    -3.968000000
H     0.243000000     1.358000000    -6.117000000
C     1.436000000     3.323000000    -3.687000000
H     0.792000000     4.190000000    -3.807000000
C     2.537000000     3.292000000    -2.772000000
C     2.709000000     4.532000000    -2.000000000
H     2.459000000     5.452000000    -2.533000000
H     3.798000000     4.588000000    -1.948000000
C     2.081000000     4.449000000    -0.565000000
C     0.823000000     4.998000000    -0.317000000
H     0.304000000     5.449000000    -1.159000000
C     2.793000000     3.914000000     0.506000000
C     2.106000000     3.695000000     1.722000000
H     2.597000000     3.114000000     2.498000000
C     0.829000000     4.152000000     1.893000000
O     0.222000000     3.764000000     3.081000000
C    -0.802000000     2.760000000     3.060000000
C    -0.666000000     1.781000000     4.226000000
C    -1.489000000     0.615000000     4.317000000
H    -2.350000000     0.518000000     3.661000000
C     0.368000000     1.842000000     5.143000000
H     1.033000000     2.702000000     5.137000000
O    -2.194000000     3.145000000     3.030000000
H    -0.592000000     2.165000000     2.160000000
C     0.215000000     4.867000000     0.918000000
C    -1.265000000     5.163000000     1.048000000
H    -1.486000000     5.976000000     0.354000000
H    -1.572000000     5.477000000     2.047000000
C    -2.215000000     4.008000000     0.747000000
C    -2.762000000     3.937000000    -0.521000000
H    -2.365000000     4.641000000    -1.248000000
C    -2.742000000     3.117000000     1.775000000
C    -3.678000000     2.151000000     1.413000000
H    -3.905000000     1.495000000     2.250000000
C    -4.129000000     2.059000000     0.094000000
O    -4.933000000     1.014000000    -0.272000000
C    -4.193000000    -0.112000000    -0.793000000
C    -4.661000000    -1.432000000    -0.218000000
C    -5.207000000    -1.529000000     1.088000000
H    -5.439000000    -0.590000000     1.584000000
C    -4.353000000    -2.669000000    -0.873000000
H    -3.889000000    -2.701000000    -1.856000000
O    -4.352000000    -0.177000000    -2.227000000
H    -3.138000000     0.045000000    -0.526000000
C    -3.657000000     2.911000000    -0.918000000
C    -4.096000000     2.806000000    -2.380000000
H    -3.929000000     3.765000000    -2.875000000
H    -5.138000000     2.482000000    -2.337000000
C    -3.160000000     1.776000000    -3.053000000
C    -3.428000000     0.398000000    -3.054000000
C    -2.618000000    -0.438000000    -3.846000000
H    -2.757000000    -1.515000000    -3.819000000
C    -1.541000000     0.066000000    -4.600000000
O    -0.635000000    -0.835000000    -5.026000000
C     0.567000000    -1.038000000    -4.192000000
H     0.502000000    -0.670000000    -3.158000000
C     0.913000000    -2.551000000    -4.060000000
C     2.034000000    -2.924000000    -3.451000000
H     2.761000000    -2.142000000    -3.246000000
C    -0.056000000    -3.593000000    -4.360000000
H    -1.032000000    -3.321000000    -4.754000000
C     0.158000000    -4.906000000    -3.923000000
O    -0.840000000    -5.761000000    -4.129000000
C     1.303000000    -5.247000000    -3.199000000
H     1.459000000    -6.279000000    -2.897000000
C     2.255000000    -4.251000000    -3.037000000
O     3.358000000    -4.576000000    -2.228000000
C     4.555000000    -3.909000000    -2.232000000
C     5.120000000    -3.403000000    -1.088000000
H     4.621000000    -3.569000000    -0.136000000
C     5.178000000    -3.572000000    -3.499000000
H     4.710000000    -4.050000000    -4.356000000
C     6.350000000    -2.863000000    -3.503000000
H     6.878000000    -2.832000000    -4.452000000
C     6.937000000    -2.439000000    -2.297000000
H     7.813000000    -1.797000000    -2.255000000
C     6.258000000    -2.692000000    -1.082000000
O     6.719000000    -2.166000000     0.124000000
C     5.979000000    -1.125000000     0.711000000
C     5.894000000    -1.108000000     2.093000000
H     6.430000000    -1.854000000     2.675000000
C     5.322000000    -0.060000000     2.778000000
O     5.424000000    -0.041000000     4.193000000
C     4.774000000     0.901000000     4.960000000
C     3.584000000     0.520000000     5.649000000
H     3.071000000    -0.438000000     5.659000000
C     5.357000000     2.189000000     5.075000000
H     6.220000000     2.555000000     4.525000000
C     4.695000000     3.094000000     5.927000000
H     5.116000000     4.079000000     6.109000000
C     3.486000000     2.738000000     6.560000000
H     2.964000000     3.479000000     7.161000000
C     2.908000000     1.460000000     6.471000000
O     1.657000000     1.141000000     7.009000000
C     0.578000000     0.904000000     6.133000000
C    -0.260000000    -0.237000000     6.241000000
H    -0.112000000    -1.066000000     6.928000000
C    -1.325000000    -0.286000000     5.294000000
O    -2.170000000    -1.365000000     5.307000000
C    -3.568000000    -1.386000000     5.124000000
C    -4.110000000    -2.215000000     4.171000000
H    -3.443000000    -2.762000000     3.509000000
C    -4.396000000    -0.537000000     5.868000000
H    -3.963000000    -0.010000000     6.715000000
C    -5.711000000    -0.568000000     5.648000000
H    -6.350000000     0.120000000     6.195000000
C    -6.255000000    -1.374000000     4.732000000
H    -7.335000000    -1.388000000     4.606000000
C    -5.491000000    -2.218000000     3.945000000
O    -6.131000000    -2.887000000     2.931000000
C    -5.564000000    -2.714000000     1.634000000
C    -5.343000000    -3.952000000     0.889000000
H    -5.564000000    -4.894000000     1.384000000
C    -4.718000000    -3.931000000    -0.350000000
O    -4.327000000    -5.079000000    -0.950000000
C    -3.869000000    -5.214000000    -2.191000000
C    -4.767000000    -4.895000000    -3.209000000
H    -5.791000000    -4.676000000    -2.918000000
C    -4.307000000    -4.800000000    -4.515000000
H    -4.976000000    -4.430000000    -5.288000000
C    -3.047000000    -5.192000000    -4.889000000
H    -2.680000000    -5.197000000    -5.912000000
C    -2.148000000    -5.543000000    -3.878000000
C    -2.541000000    -5.520000000    -2.503000000
H    -1.798000000    -5.680000000    -1.726000000
C     1.525000000    -2.459000000     0.466000000
H     1.515000000    -3.408000000    -0.064000000
C     0.892000000    -1.436000000    -0.236000000
H     0.507000000    -1.635000000    -1.232000000
C     0.829000000    -0.136000000     0.347000000
C     0.209000000     1.046000000    -0.481000000
H     0.590000000     1.118000000    -1.502000000
H    -0.880000000     1.086000000    -0.405000000
H     0.533000000     2.007000000    -0.077000000
C     1.250000000    -0.006000000     1.659000000
H     1.232000000     0.976000000     2.125000000
C     1.802000000    -1.021000000     2.389000000
H     2.006000000    -0.889000000     3.448000000
C     2.018000000    -2.248000000     1.750000000
C     2.419000000    -3.443000000     2.606000000
O     2.595000000    -3.289000000     3.829000000
O     2.448000000    -4.540000000     2.068000000
O    -0.798000000    -3.549000000     1.912000000
H     0.033000000    -3.085000000     1.809000000
H    -1.106000000    -3.690000000     1.017000000
O    -0.951000000    -7.779000000    -0.364000000
H    -1.085000000    -8.070000000     0.538000000
H    -0.205000000    -7.181000000    -0.315000000
O    -0.077000000    -3.748000000     4.624000000
H     0.742000000    -3.255000000     4.573000000
H    -0.462000000    -3.663000000     3.752000000
O     5.364000000    -5.112000000     7.284000000
H     5.235000000    -4.497000000     6.563000000
H     5.550000000    -5.948000000     6.855000000
O     1.121000000    -6.450000000     3.858000000
H     0.944000000    -5.587000000     4.232000000
H     1.606000000    -6.267000000     3.053000000
O     5.941000000    -6.785000000     5.265000000
H     5.125000000    -7.243000000     5.064000000
H     6.072000000    -6.194000000     4.523000000
O    -0.787000000    -3.439000000     7.574000000
H    -1.692000000    -3.366000000     7.877000000
H    -0.856000000    -3.473000000     6.620000000
O     0.983000000    -9.063000000     2.979000000
H     0.414000000    -9.562000000     3.564000000
H     0.999000000    -8.182000000     3.353000000
O     7.231000000    -2.289000000     5.108000000
H     6.413000000    -2.642000000     4.759000000
H     7.693000000    -3.052000000     5.453000000
O    -1.327000000    -6.997000000     2.600000000
H    -1.555000000    -6.217000000     2.093000000
H    -0.478000000    -6.790000000     2.989000000
O     1.086000000    -6.191000000     0.565000000
H     1.419000000    -5.432000000     1.043000000
H     1.763000000    -6.859000000     0.674000000
O     3.382000000    -3.191000000     6.418000000
H     2.894000000    -3.306000000     5.602000000
H     2.766000000    -3.447000000     7.104000000
O     2.516000000    -8.583000000     0.852000000
H     3.419000000    -8.567000000     1.169000000
H     1.987000000    -8.698000000     1.641000000
O     8.267000000    -5.385000000     1.925000000
H     7.378000000    -5.096000000     2.132000000
H     8.743000000    -5.307000000     2.752000000
O     4.887000000    -7.324000000    -0.185000000
H     5.589000000    -7.852000000    -0.565000000
H     4.169000000    -7.391000000    -0.814000000
O    -0.732000000    -6.831000000     6.717000000
H     0.076000000    -7.210000000     7.062000000
H    -0.529000000    -6.623000000     5.805000000
O     3.337000000    -8.016000000     4.979000000
H     2.612000000    -7.394000000     4.916000000
H     3.182000000    -8.481000000     5.801000000
O     5.384000000    -5.207000000     1.824000000
H     5.283000000    -5.930000000     1.205000000
H     4.582000000    -4.694000000     1.726000000
O     5.214000000    -4.096000000     4.308000000
H     4.303000000    -3.833000000     4.440000000
H     5.248000000    -4.392000000     3.399000000
