218
-1473.83284
C     4.625000000     2.117000000     0.107000000
H     4.304000000     3.133000000     0.319000000
C     4.455000000     1.486000000    -1.069000000
C     5.080000000     0.243000000    -1.242000000
H     4.964000000    -0.357000000    -2.141000000
C     3.345000000     1.925000000    -2.063000000
O     3.009000000     3.349000000    -2.040000000
H     2.456000000     1.356000000    -1.754000000
O     3.618000000     1.590000000    -3.442000000
C     2.486000000     1.118000000    -4.095000000
C     2.424000000    -0.290000000    -4.170000000
H     3.269000000    -0.929000000    -3.924000000
C     1.246000000    -0.921000000    -4.534000000
O     1.074000000    -2.268000000    -4.414000000
C     0.164000000    -0.148000000    -5.050000000
C    -1.157000000    -0.803000000    -5.508000000
H    -1.580000000    -0.143000000    -6.269000000
C    -2.092000000    -1.086000000    -4.279000000
C    -3.085000000    -0.159000000    -4.031000000
H    -3.234000000     0.627000000    -4.766000000
H    -0.975000000    -1.726000000    -6.062000000
C     0.265000000     1.229000000    -4.961000000
H    -0.567000000     1.837000000    -5.308000000
C     1.359000000     1.869000000    -4.463000000
C     1.370000000     3.375000000    -4.326000000
H     0.776000000     3.812000000    -5.132000000
H     2.373000000     3.793000000    -4.432000000
C     0.832000000     3.802000000    -2.909000000
C    -0.542000000     4.047000000    -2.630000000
H    -1.361000000     4.051000000    -3.345000000
C     1.717000000     3.704000000    -1.836000000
C     1.292000000     4.120000000    -0.544000000
H     2.079000000     4.175000000     0.203000000
C     0.002000000     4.421000000    -0.260000000
O    -0.385000000     4.592000000     1.045000000
C    -1.144000000     3.669000000     1.785000000
C    -0.662000000     3.646000000     3.256000000
C    -1.314000000     2.894000000     4.199000000
H    -2.311000000     2.496000000     4.028000000
C     0.539000000     4.151000000     3.674000000
H     1.102000000     4.816000000     3.025000000
O    -2.554000000     3.964000000     1.678000000
H    -0.908000000     2.709000000     1.303000000
C    -0.946000000     4.370000000    -1.339000000
C    -2.386000000     4.819000000    -1.066000000
H    -2.724000000     5.225000000    -2.022000000
H    -2.472000000     5.649000000    -0.361000000
C    -3.220000000     3.651000000    -0.697000000
C    -3.768000000     2.922000000    -1.695000000
H    -3.748000000     3.131000000    -2.762000000
C    -3.195000000     3.271000000     0.687000000
C    -3.925000000     2.167000000     1.012000000
H    -4.009000000     1.805000000     2.034000000
C    -4.434000000     1.364000000     0.004000000
O    -4.968000000     0.185000000     0.345000000
C    -4.145000000    -1.046000000     0.277000000
C    -4.163000000    -1.802000000     1.567000000
C    -4.472000000    -1.278000000     2.850000000
H    -4.908000000    -0.286000000     2.939000000
C    -3.653000000    -3.049000000     1.474000000
H    -3.208000000    -3.422000000     0.555000000
O    -4.559000000    -1.763000000    -0.934000000
H    -3.104000000    -0.719000000     0.138000000
C    -4.369000000     1.723000000    -1.362000000
C    -4.903000000     0.811000000    -2.455000000
H    -5.106000000     1.410000000    -3.345000000
H    -5.812000000     0.345000000    -2.070000000
C    -3.945000000    -0.324000000    -2.903000000
C    -3.823000000    -1.453000000    -2.076000000
C    -2.858000000    -2.420000000    -2.401000000
H    -2.727000000    -3.283000000    -1.754000000
C    -1.947000000    -2.181000000    -3.458000000
O    -0.972000000    -3.066000000    -3.737000000
C     0.355000000    -2.728000000    -3.336000000
H     0.265000000    -1.908000000    -2.608000000
C     0.996000000    -4.000000000    -2.716000000
C     2.409000000    -4.147000000    -2.706000000
H     3.011000000    -3.495000000    -3.334000000
C     0.246000000    -4.886000000    -1.908000000
H    -0.831000000    -4.736000000    -1.911000000
C     0.864000000    -5.964000000    -1.199000000
O     0.176000000    -6.846000000    -0.367000000
C     2.232000000    -6.176000000    -1.379000000
H     2.595000000    -7.082000000    -0.900000000
C     2.989000000    -5.273000000    -2.127000000
O     4.380000000    -5.496000000    -2.254000000
C     5.368000000    -4.485000000    -2.196000000
C     5.295000000    -3.501000000    -1.180000000
H     4.586000000    -3.532000000    -0.356000000
C     6.234000000    -4.225000000    -3.286000000
H     6.187000000    -4.978000000    -4.067000000
C     7.098000000    -3.115000000    -3.386000000
H     7.790000000    -2.903000000    -4.197000000
C     7.038000000    -2.163000000    -2.359000000
H     7.728000000    -1.329000000    -2.268000000
C     6.237000000    -2.421000000    -1.259000000
O     6.370000000    -1.558000000    -0.178000000
C     5.865000000    -0.309000000    -0.216000000
C     5.971000000     0.373000000     0.932000000
H     6.345000000    -0.100000000     1.836000000
C     5.412000000     1.619000000     1.170000000
O     5.537000000     2.224000000     2.400000000
C     4.985000000     3.364000000     2.918000000
C     4.098000000     3.278000000     3.974000000
H     3.869000000     2.288000000     4.361000000
C     5.308000000     4.619000000     2.401000000
H     6.051000000     4.605000000     1.608000000
C     4.796000000     5.746000000     2.971000000
H     5.302000000     6.666000000     2.691000000
C     3.797000000     5.697000000     3.966000000
H     3.359000000     6.584000000     4.416000000
C     3.417000000     4.423000000     4.413000000
O     2.332000000     4.392000000     5.285000000
C     1.102000000     3.873000000     4.925000000
C     0.437000000     3.106000000     5.881000000
H     0.757000000     2.952000000     6.908000000
C    -0.821000000     2.631000000     5.524000000
O    -1.580000000     1.785000000     6.313000000
C    -2.899000000     1.363000000     6.173000000
C    -3.173000000     0.086000000     5.820000000
H    -2.321000000    -0.589000000     5.794000000
C    -3.981000000     2.305000000     6.368000000
H    -3.752000000     3.343000000     6.595000000
C    -5.293000000     1.906000000     6.163000000
H    -6.112000000     2.615000000     6.257000000
C    -5.518000000     0.604000000     5.643000000
H    -6.517000000     0.277000000     5.364000000
C    -4.493000000    -0.267000000     5.593000000
O    -4.802000000    -1.614000000     5.234000000
C    -4.329000000    -2.044000000     3.993000000
C    -3.793000000    -3.300000000     3.881000000
H    -3.713000000    -3.943000000     4.754000000
C    -3.478000000    -3.855000000     2.675000000
O    -2.980000000    -5.164000000     2.692000000
C    -2.799000000    -5.866000000     1.568000000
C    -3.794000000    -6.430000000     0.823000000
H    -4.830000000    -6.454000000     1.153000000
C    -3.566000000    -7.114000000    -0.355000000
H    -4.376000000    -7.596000000    -0.896000000
C    -2.179000000    -7.304000000    -0.739000000
H    -1.895000000    -7.874000000    -1.620000000
C    -1.179000000    -6.663000000    -0.006000000
C    -1.480000000    -5.928000000     1.140000000
H    -0.651000000    -5.415000000     1.620000000
C     0.908000000    -2.326000000     1.282000000
H     0.835000000    -3.400000000     1.430000000
C     0.164000000    -1.622000000     0.349000000
H    -0.611000000    -2.160000000    -0.191000000
C     0.230000000    -0.230000000     0.316000000
C    -0.636000000     0.529000000    -0.633000000
H    -0.723000000     0.094000000    -1.631000000
H    -1.588000000     0.547000000    -0.099000000
H    -0.218000000     1.537000000    -0.673000000
C     1.107000000     0.416000000     1.148000000
H     1.156000000     1.486000000     0.964000000
C     1.865000000    -0.339000000     2.060000000
H     2.570000000     0.142000000     2.733000000
C     1.857000000    -1.731000000     2.084000000
C     2.697000000    -2.433000000     3.141000000
O     3.325000000    -1.780000000     3.955000000
O     2.547000000    -3.625000000     3.251000000
O     2.892000000     0.343000000     5.705000000
H     1.984000000     0.208000000     5.978000000
H     3.062000000    -0.363000000     5.082000000
O     3.781000000    -3.199000000     6.086000000
H     3.755000000    -2.579000000     5.356000000
H     3.656000000    -4.055000000     5.677000000
O     6.936000000    -2.570000000     7.031000000
H     6.303000000    -2.266000000     6.380000000
H     7.140000000    -3.467000000     6.765000000
O     1.380000000    -7.181000000     3.126000000
H     1.983000000    -6.706000000     2.554000000
H     1.662000000    -8.094000000     3.067000000
O     0.362000000    -0.025000000     6.794000000
H    -0.521000000     0.342000000     6.744000000
H     0.241000000    -0.961000000     6.634000000
O     6.745000000     0.821000000     5.783000000
H     6.793000000     1.197000000     6.662000000
H     7.136000000     1.487000000     5.217000000
O    -0.599000000    -2.413000000     6.303000000
H    -1.270000000    -2.710000000     6.918000000
H    -0.564000000    -3.100000000     5.637000000
O     2.919000000     0.689000000     8.465000000
H     2.800000000     0.755000000     7.518000000
H     2.031000000     0.605000000     8.813000000
O     0.403000000    -4.760000000     4.215000000
H     1.175000000    -4.271000000     3.929000000
H     0.545000000    -5.647000000     3.885000000
O     8.562000000    -0.525000000     3.368000000
H     7.748000000    -0.687000000     3.846000000
H     8.511000000     0.396000000     3.114000000
O     6.732000000    -3.714000000     3.504000000
H     7.559000000    -3.610000000     3.033000000
H     6.456000000    -2.820000000     3.705000000
O    -0.792000000    -5.708000000     6.556000000
H    -0.324000000    -5.382000000     5.787000000
H    -0.533000000    -6.628000000     6.621000000
O     6.996000000    -5.217000000     5.759000000
H     6.245000000    -5.787000000     5.595000000
H     6.969000000    -4.576000000     5.049000000
O     4.606000000    -6.282000000     4.606000000
H     4.043000000    -7.040000000     4.447000000
H     4.455000000    -5.710000000     3.854000000
O     4.112000000    -1.860000000     8.462000000
H     3.747000000    -1.007000000     8.229000000
H     4.422000000    -2.223000000     7.632000000
O     6.246000000    -6.101000000     1.880000000
H     6.415000000    -5.262000000     2.309000000
H     6.357000000    -6.751000000     2.574000000
O     0.454000000    -4.208000000     8.445000000
H    -0.052000000    -4.637000000     7.755000000
H     1.081000000    -3.659000000     7.975000000
O     3.084000000    -5.604000000     1.487000000
H     2.829000000    -4.892000000     2.075000000
H     3.746000000    -5.216000000     0.915000000
O     5.819000000    -1.128000000     4.068000000
H     4.888000000    -1.144000000     3.844000000
H     5.908000000    -0.391000000     4.672000000
