218
-1483.79173
C     4.813000000     2.445000000     0.423000000
H     4.388000000     3.440000000     0.530000000
C     4.450000000     1.618000000    -0.611000000
C     5.155000000     0.404000000    -0.783000000
H     4.776000000    -0.274000000    -1.544000000
C     3.421000000     2.077000000    -1.613000000
O     3.261000000     3.528000000    -1.653000000
H     2.513000000     1.556000000    -1.275000000
O     3.740000000     1.636000000    -2.984000000
C     2.646000000     1.018000000    -3.586000000
C     2.469000000    -0.335000000    -3.413000000
H     3.195000000    -0.933000000    -2.867000000
C     1.539000000    -0.994000000    -4.163000000
O     1.531000000    -2.398000000    -3.996000000
C     0.542000000    -0.296000000    -4.864000000
C    -0.589000000    -1.016000000    -5.545000000
H    -0.917000000    -0.389000000    -6.376000000
C    -1.662000000    -1.165000000    -4.486000000
C    -2.565000000    -0.160000000    -4.192000000
H    -2.497000000     0.806000000    -4.687000000
H    -0.241000000    -1.956000000    -5.981000000
C     0.602000000     1.089000000    -4.770000000
H    -0.225000000     1.574000000    -5.281000000
C     1.678000000     1.769000000    -4.161000000
C     1.619000000     3.255000000    -4.115000000
H     0.969000000     3.569000000    -4.934000000
H     2.634000000     3.592000000    -4.336000000
C     1.132000000     3.842000000    -2.819000000
C    -0.250000000     4.133000000    -2.752000000
H    -0.907000000     3.946000000    -3.597000000
C     1.946000000     4.011000000    -1.670000000
C     1.389000000     4.445000000    -0.452000000
H     1.986000000     4.378000000     0.455000000
C     0.026000000     4.641000000    -0.403000000
O    -0.539000000     4.801000000     0.827000000
C    -1.308000000     3.810000000     1.391000000
C    -0.905000000     3.689000000     2.895000000
C    -1.896000000     3.201000000     3.817000000
H    -2.952000000     3.073000000     3.594000000
C     0.427000000     3.738000000     3.323000000
H     1.267000000     4.021000000     2.694000000
O    -2.813000000     4.051000000     1.200000000
H    -1.080000000     2.842000000     0.922000000
C    -0.813000000     4.569000000    -1.561000000
C    -2.307000000     4.890000000    -1.550000000
H    -2.674000000     5.292000000    -2.497000000
H    -2.561000000     5.650000000    -0.807000000
C    -3.044000000     3.642000000    -1.168000000
C    -3.443000000     2.742000000    -2.153000000
H    -3.181000000     2.973000000    -3.182000000
C    -3.353000000     3.395000000     0.135000000
C    -4.031000000     2.227000000     0.498000000
H    -4.135000000     1.905000000     1.530000000
C    -4.468000000     1.405000000    -0.466000000
O    -5.021000000     0.185000000    -0.126000000
C    -4.046000000    -0.944000000    -0.099000000
C    -4.118000000    -1.794000000     1.156000000
C    -4.611000000    -1.195000000     2.317000000
H    -4.795000000    -0.127000000     2.399000000
C    -3.685000000    -3.073000000     1.192000000
H    -3.148000000    -3.507000000     0.352000000
O    -4.220000000    -1.795000000    -1.232000000
H    -3.036000000    -0.513000000    -0.164000000
C    -4.144000000     1.644000000    -1.829000000
C    -4.566000000     0.740000000    -2.895000000
H    -4.830000000     1.354000000    -3.758000000
H    -5.526000000     0.300000000    -2.615000000
C    -3.538000000    -0.366000000    -3.194000000
C    -3.473000000    -1.552000000    -2.400000000
C    -2.622000000    -2.604000000    -2.729000000
H    -2.555000000    -3.535000000    -2.174000000
C    -1.631000000    -2.288000000    -3.669000000
O    -0.600000000    -3.215000000    -3.904000000
C     0.554000000    -3.001000000    -3.160000000
H     0.334000000    -2.212000000    -2.426000000
C     1.157000000    -4.137000000    -2.334000000
C     2.510000000    -4.204000000    -1.932000000
H     3.170000000    -3.460000000    -2.373000000
C     0.298000000    -5.130000000    -1.846000000
H    -0.781000000    -5.103000000    -1.974000000
C     0.833000000    -6.111000000    -1.011000000
O     0.052000000    -7.156000000    -0.528000000
C     2.198000000    -6.098000000    -0.632000000
H     2.608000000    -6.871000000     0.013000000
C     3.060000000    -5.122000000    -1.098000000
O     4.405000000    -5.149000000    -0.880000000
C     5.350000000    -4.164000000    -1.281000000
C     5.610000000    -2.991000000    -0.463000000
H     5.023000000    -2.859000000     0.442000000
C     6.086000000    -4.374000000    -2.455000000
H     5.856000000    -5.290000000    -2.992000000
C     7.052000000    -3.453000000    -2.806000000
H     7.607000000    -3.662000000    -3.717000000
C     7.366000000    -2.332000000    -2.002000000
H     8.235000000    -1.722000000    -2.236000000
C     6.608000000    -2.139000000    -0.786000000
O     6.938000000    -1.091000000     0.033000000
C     6.156000000     0.048000000     0.144000000
C     6.497000000     0.946000000     1.188000000
H     7.403000000     0.733000000     1.750000000
C     5.775000000     2.106000000     1.371000000
O     6.037000000     2.966000000     2.451000000
C     5.100000000     3.718000000     3.136000000
C     3.990000000     3.087000000     3.635000000
H     3.978000000     2.001000000     3.623000000
C     5.280000000     5.107000000     3.223000000
H     6.095000000     5.591000000     2.691000000
C     4.333000000     5.847000000     3.890000000
H     4.575000000     6.901000000     4.000000000
C     3.218000000     5.285000000     4.526000000
H     2.535000000     5.812000000     5.187000000
C     3.113000000     3.890000000     4.356000000
O     2.081000000     3.341000000     5.011000000
C     0.777000000     3.436000000     4.616000000
C    -0.116000000     2.899000000     5.495000000
H     0.235000000     2.587000000     6.475000000
C    -1.480000000     2.779000000     5.101000000
O    -2.321000000     2.226000000     6.090000000
C    -3.554000000     1.636000000     5.990000000
C    -3.652000000     0.360000000     5.481000000
H    -2.790000000    -0.287000000     5.343000000
C    -4.670000000     2.448000000     6.200000000
H    -4.470000000     3.455000000     6.555000000
C    -5.885000000     1.889000000     5.984000000
H    -6.748000000     2.504000000     6.229000000
C    -6.030000000     0.668000000     5.403000000
H    -6.988000000     0.197000000     5.201000000
C    -4.928000000    -0.131000000     5.055000000
O    -5.147000000    -1.451000000     4.669000000
C    -4.686000000    -1.994000000     3.479000000
C    -4.304000000    -3.348000000     3.469000000
H    -4.513000000    -3.898000000     4.383000000
C    -3.869000000    -3.895000000     2.273000000
O    -3.540000000    -5.249000000     2.156000000
C    -3.112000000    -5.889000000     1.011000000
C    -4.024000000    -6.554000000     0.239000000
H    -5.063000000    -6.456000000     0.544000000
C    -3.620000000    -7.464000000    -0.752000000
H    -4.324000000    -8.022000000    -1.364000000
C    -2.226000000    -7.617000000    -0.959000000
H    -1.878000000    -8.258000000    -1.765000000
C    -1.285000000    -6.958000000    -0.162000000
C    -1.711000000    -6.076000000     0.806000000
H    -0.955000000    -5.550000000     1.382000000
C     0.180000000    -2.017000000     1.384000000
H    -0.011000000    -3.074000000     1.546000000
C    -0.323000000    -1.361000000     0.295000000
H    -1.059000000    -1.762000000    -0.397000000
C     0.083000000    -0.022000000     0.007000000
C    -0.453000000     0.728000000    -1.196000000
H    -0.549000000     0.047000000    -2.044000000
H    -1.447000000     1.137000000    -1.005000000
H     0.221000000     1.524000000    -1.518000000
C     1.063000000     0.603000000     0.847000000
H     1.235000000     1.671000000     0.744000000
C     1.671000000    -0.229000000     1.861000000
H     2.569000000     0.096000000     2.379000000
C     1.212000000    -1.489000000     2.146000000
C     1.804000000    -2.320000000     3.291000000
O     2.620000000    -1.803000000     4.027000000
O     1.401000000    -3.459000000     3.440000000
O     0.492000000    -0.263000000     5.200000000
H    -0.100000000    -1.000000000     5.051000000
H     0.608000000     0.130000000     4.335000000
O     1.814000000    -7.114000000     4.439000000
H     1.550000000    -7.535000000     5.257000000
H     2.458000000    -6.457000000     4.706000000
O    -0.549000000    -0.767000000     7.960000000
H    -1.492000000    -0.798000000     7.799000000
H    -0.414000000     0.049000000     8.441000000
O     4.007000000    -0.834000000     6.014000000
H     3.360000000    -0.422000000     6.587000000
H     3.493000000    -1.196000000     5.293000000
O     2.057000000     0.498000000     7.721000000
H     1.682000000     0.507000000     8.602000000
H     1.319000000     0.287000000     7.149000000
O     6.223000000     0.554000000     5.135000000
H     6.678000000     0.245000000     4.351000000
H     5.434000000     0.015000000     5.181000000
O     4.789000000    -2.175000000     8.373000000
H     4.799000000    -1.712000000     7.536000000
H     4.950000000    -3.090000000     8.143000000
O     1.445000000    -2.778000000     6.482000000
H     2.016000000    -2.630000000     5.729000000
H     1.037000000    -1.928000000     6.645000000
O    -1.066000000    -2.253000000     4.438000000
H    -1.571000000    -2.616000000     5.166000000
H    -0.707000000    -3.019000000     3.990000000
O    -0.352000000    -5.373000000     3.841000000
H     0.363000000    -4.744000000     3.747000000
H     0.082000000    -6.204000000     4.034000000
O     7.128000000    -3.597000000     3.021000000
H     7.722000000    -3.401000000     2.296000000
H     7.456000000    -3.068000000     3.748000000
O    -2.170000000    -5.919000000     5.664000000
H    -1.714000000    -5.633000000     6.455000000
H    -1.565000000    -5.714000000     4.951000000
O     5.336000000    -6.013000000     5.266000000
H     4.475000000    -5.725000000     4.961000000
H     5.940000000    -5.347000000     4.938000000
O     3.135000000    -4.580000000     5.058000000
H     3.288000000    -4.113000000     5.880000000
H     2.528000000    -4.019000000     4.574000000
O     1.222000000    -2.490000000     9.449000000
H     0.441000000    -2.050000000     9.111000000
H     1.827000000    -2.506000000     8.708000000
O     5.367000000    -5.780000000     1.840000000
H     4.475000000    -5.435000000     1.801000000
H     5.899000000    -5.035000000     2.122000000
O    -0.979000000    -4.211000000     7.588000000
H    -1.785000000    -3.745000000     7.368000000
H    -0.325000000    -3.857000000     6.984000000
O     2.733000000    -5.417000000     2.183000000
H     2.297000000    -6.191000000     2.539000000
H     2.363000000    -4.686000000     2.678000000
O     5.181000000    -1.063000000     2.992000000
H     5.318000000    -2.008000000     2.916000000
H     4.297000000    -0.977000000     3.348000000
