218
-1473.57459
C    -3.729000000    -2.565000000    -3.024000000
H    -3.804000000    -1.635000000    -3.581000000
C    -3.995000000    -2.527000000    -1.646000000
C    -4.157000000    -3.722000000    -0.909000000
H    -4.391000000    -3.631000000     0.148000000
C    -4.208000000    -1.159000000    -0.961000000
O    -4.707000000    -0.231000000    -1.969000000
H    -3.176000000    -0.861000000    -0.723000000
O    -4.989000000    -1.152000000     0.252000000
C    -4.649000000    -0.463000000     1.341000000
C    -3.881000000    -1.085000000     2.292000000
H    -3.711000000    -2.157000000     2.351000000
C    -3.253000000    -0.410000000     3.361000000
O    -2.456000000    -1.166000000     4.162000000
C    -3.433000000     0.973000000     3.447000000
C    -2.772000000     1.818000000     4.573000000
H    -3.414000000     2.701000000     4.625000000
C    -1.322000000     2.253000000     4.226000000
C    -0.996000000     3.501000000     3.635000000
H    -1.870000000     4.120000000     3.447000000
H    -2.754000000     1.306000000     5.537000000
C    -4.175000000     1.627000000     2.456000000
H    -4.208000000     2.704000000     2.315000000
C    -4.808000000     0.894000000     1.390000000
C    -5.420000000     1.717000000     0.254000000
H    -5.679000000     2.674000000     0.713000000
H    -6.258000000     1.162000000    -0.173000000
C    -4.465000000     1.961000000    -0.965000000
C    -3.868000000     3.181000000    -1.012000000
H    -4.118000000     3.914000000    -0.248000000
C    -4.126000000     1.004000000    -1.948000000
C    -3.264000000     1.341000000    -2.921000000
H    -3.133000000     0.710000000    -3.796000000
C    -2.561000000     2.535000000    -2.920000000
O    -1.531000000     2.811000000    -3.775000000
C    -0.156000000     2.538000000    -3.273000000
C     0.697000000     1.756000000    -4.296000000
C     2.030000000     2.064000000    -4.462000000
H     2.479000000     2.916000000    -3.959000000
C     0.102000000     0.594000000    -4.868000000
H    -0.905000000     0.276000000    -4.610000000
O     0.518000000     3.827000000    -2.977000000
H    -0.102000000     1.895000000    -2.382000000
C    -2.868000000     3.544000000    -1.960000000
C    -2.049000000     4.843000000    -1.867000000
H    -2.609000000     5.606000000    -1.323000000
H    -1.883000000     5.320000000    -2.836000000
C    -0.697000000     4.695000000    -1.069000000
C    -0.693000000     4.914000000     0.325000000
H    -1.663000000     5.166000000     0.746000000
C     0.503000000     4.248000000    -1.693000000
C     1.697000000     4.110000000    -1.049000000
H     2.576000000     3.745000000    -1.573000000
C     1.705000000     4.263000000     0.352000000
O     2.875000000     3.995000000     1.071000000
C     2.912000000     2.764000000     1.811000000
C     4.083000000     1.827000000     1.489000000
C     4.702000000     1.833000000     0.214000000
H     4.290000000     2.362000000    -0.641000000
C     4.561000000     0.930000000     2.465000000
H     4.114000000     0.899000000     3.455000000
O     2.663000000     2.955000000     3.241000000
H     2.107000000     2.109000000     1.446000000
C     0.503000000     4.681000000     0.985000000
C     0.609000000     5.001000000     2.496000000
H    -0.240000000     5.672000000     2.640000000
H     1.599000000     5.411000000     2.706000000
C     0.333000000     3.730000000     3.281000000
C     1.362000000     2.804000000     3.599000000
C     1.033000000     1.640000000     4.198000000
H     1.853000000     0.957000000     4.407000000
C    -0.316000000     1.305000000     4.432000000
O    -0.572000000     0.053000000     4.987000000
C    -1.012000000    -0.960000000     4.065000000
H    -0.814000000    -0.559000000     3.060000000
C    -0.167000000    -2.287000000     4.052000000
C    -0.672000000    -3.345000000     3.295000000
H    -1.659000000    -3.270000000     2.846000000
C     1.070000000    -2.448000000     4.674000000
H     1.306000000    -1.640000000     5.362000000
C     1.824000000    -3.609000000     4.457000000
O     3.004000000    -3.773000000     5.131000000
C     1.283000000    -4.701000000     3.775000000
H     1.857000000    -5.621000000     3.707000000
C     0.074000000    -4.518000000     3.132000000
O    -0.429000000    -5.702000000     2.617000000
C    -1.718000000    -5.877000000     2.196000000
C    -2.049000000    -6.115000000     0.885000000
H    -1.251000000    -6.231000000     0.157000000
C    -2.722000000    -5.739000000     3.165000000
H    -2.413000000    -5.562000000     4.192000000
C    -4.073000000    -5.863000000     2.805000000
H    -4.756000000    -5.962000000     3.645000000
C    -4.375000000    -6.086000000     1.451000000
H    -5.391000000    -6.237000000     1.095000000
C    -3.379000000    -6.161000000     0.448000000
O    -3.730000000    -6.124000000    -0.861000000
C    -3.752000000    -4.920000000    -1.531000000
C    -3.331000000    -4.927000000    -2.833000000
H    -3.149000000    -5.883000000    -3.317000000
C    -3.344000000    -3.759000000    -3.625000000
O    -3.088000000    -3.943000000    -4.952000000
C    -2.711000000    -3.007000000    -5.809000000
C    -1.479000000    -2.421000000    -5.622000000
H    -0.798000000    -2.832000000    -4.880000000
C    -3.620000000    -2.615000000    -6.812000000
H    -4.605000000    -3.075000000    -6.826000000
C    -3.274000000    -1.518000000    -7.596000000
H    -4.015000000    -1.257000000    -8.347000000
C    -2.051000000    -0.829000000    -7.423000000
H    -1.708000000     0.075000000    -7.919000000
C    -1.132000000    -1.380000000    -6.530000000
O     0.223000000    -1.028000000    -6.612000000
C     0.830000000    -0.125000000    -5.813000000
C     2.204000000     0.191000000    -6.046000000
H     2.839000000    -0.430000000    -6.674000000
C     2.791000000     1.225000000    -5.303000000
O     4.152000000     1.439000000    -5.314000000
C     4.927000000     2.105000000    -4.405000000
C     5.172000000     1.486000000    -3.114000000
H     4.666000000     0.536000000    -2.959000000
C     5.748000000     3.207000000    -4.715000000
H     5.774000000     3.471000000    -5.769000000
C     6.672000000     3.678000000    -3.846000000
H     7.253000000     4.582000000    -4.007000000
C     6.964000000     3.016000000    -2.633000000
H     7.812000000     3.266000000    -2.001000000
C     6.181000000     1.923000000    -2.287000000
O     6.555000000     1.166000000    -1.193000000
C     5.831000000     1.042000000    -0.062000000
C     6.361000000     0.197000000     0.900000000
H     7.348000000    -0.226000000     0.731000000
C     5.726000000     0.145000000     2.149000000
O     6.255000000    -0.830000000     3.097000000
C     5.537000000    -1.271000000     4.199000000
C     6.210000000    -1.028000000     5.452000000
H     7.055000000    -0.345000000     5.436000000
C     5.666000000    -1.677000000     6.571000000
H     6.194000000    -1.547000000     7.513000000
C     4.597000000    -2.553000000     6.417000000
H     4.237000000    -3.100000000     7.285000000
C     4.014000000    -2.806000000     5.172000000
C     4.489000000    -2.163000000     4.049000000
H     4.066000000    -2.300000000     3.057000000
C     0.258000000    -1.893000000    -1.687000000
H    -0.029000000    -2.516000000    -2.530000000
C    -0.454000000    -0.741000000    -1.214000000
H    -1.147000000    -0.353000000    -1.956000000
C    -0.189000000    -0.183000000     0.009000000
C    -1.041000000     1.016000000     0.541000000
H    -1.010000000     1.822000000    -0.195000000
H    -2.086000000     0.788000000     0.764000000
H    -0.541000000     1.528000000     1.365000000
C     0.782000000    -0.752000000     0.802000000
H     1.089000000    -0.339000000     1.759000000
C     1.516000000    -1.867000000     0.339000000
H     2.285000000    -2.238000000     1.011000000
C     1.266000000    -2.443000000    -0.924000000
C     2.001000000    -3.603000000    -1.437000000
O     3.016000000    -3.902000000    -0.841000000
O     1.763000000    -4.186000000    -2.540000000
O     0.498000000    -4.720000000    -4.706000000
H     0.888000000    -4.529000000    -3.854000000
H    -0.063000000    -5.480000000    -4.548000000
O     4.906000000    -5.151000000    -2.471000000
H     4.280000000    -4.683000000    -1.918000000
H     4.720000000    -4.843000000    -3.358000000
O     4.433000000    -7.843000000    -1.846000000
H     4.507000000    -6.909000000    -1.653000000
H     4.073000000    -7.877000000    -2.732000000
O     7.945000000    -2.640000000     1.165000000
H     7.065000000    -2.861000000     0.861000000
H     7.814000000    -2.299000000     2.050000000
O     7.468000000    -5.392000000    -1.729000000
H     7.747000000    -6.186000000    -2.185000000
H     6.530000000    -5.329000000    -1.910000000
O     5.399000000    -3.849000000    -7.216000000
H     5.160000000    -4.069000000    -6.315000000
H     4.818000000    -4.386000000    -7.755000000
O     5.561000000    -6.225000000     0.493000000
H     6.131000000    -6.397000000    -0.257000000
H     5.941000000    -6.739000000     1.205000000
O     1.426000000    -6.891000000    -1.757000000
H     1.431000000    -5.945000000    -1.903000000
H     2.151000000    -7.043000000    -1.151000000
O     0.919000000    -9.555000000    -2.497000000
H     1.310000000    -8.681000000    -2.515000000
H     0.950000000    -9.850000000    -3.407000000
O     3.668000000    -3.832000000    -4.410000000
H     3.186000000    -4.176000000    -5.162000000
H     3.102000000    -4.013000000    -3.660000000
O     6.644000000    -6.691000000    -4.280000000
H     6.347000000    -7.598000000    -4.353000000
H     6.127000000    -6.326000000    -3.562000000
O     3.782000000    -8.405000000    -4.412000000
H     3.869000000    -9.328000000    -4.652000000
H     3.323000000    -8.007000000    -5.152000000
O    -0.910000000    -7.029000000    -3.522000000
H    -0.194000000    -7.011000000    -2.887000000
H    -0.864000000    -7.902000000    -3.911000000
O     0.999000000    -7.902000000     1.658000000
H     1.779000000    -7.529000000     1.248000000
H     0.542000000    -7.150000000     2.034000000
O     2.896000000    -6.004000000     0.633000000
H     3.818000000    -5.985000000     0.888000000
H     2.779000000    -5.220000000     0.096000000
O     0.251000000    -4.401000000    -7.552000000
H    -0.134000000    -3.599000000    -7.903000000
H     0.087000000    -4.354000000    -6.610000000
O     6.074000000    -1.723000000    -2.180000000
H     6.779000000    -1.143000000    -1.892000000
H     5.937000000    -2.319000000    -1.443000000
O     5.587000000    -3.550000000    -0.097000000
H     4.676000000    -3.281000000    -0.210000000
H     5.535000000    -4.465000000     0.180000000
O     5.797000000    -1.783000000    -4.940000000
H     5.991000000    -1.593000000    -4.022000000
H     5.030000000    -2.355000000    -4.909000000
