218
-1473.97122
C     4.008000000     2.223000000    -0.208000000
H     3.300000000     2.979000000     0.121000000
C     3.948000000     1.845000000    -1.516000000
C     4.801000000     0.822000000    -1.928000000
H     4.695000000     0.410000000    -2.928000000
C     2.693000000     2.163000000    -2.375000000
O     2.267000000     3.519000000    -2.144000000
H     1.940000000     1.422000000    -2.071000000
O     2.919000000     1.871000000    -3.743000000
C     1.805000000     1.267000000    -4.402000000
C     1.893000000    -0.095000000    -4.393000000
H     2.824000000    -0.541000000    -4.053000000
C     0.780000000    -0.868000000    -4.642000000
O     0.774000000    -2.228000000    -4.355000000
C    -0.431000000    -0.278000000    -4.972000000
C    -1.717000000    -1.101000000    -5.159000000
H    -2.394000000    -0.520000000    -5.789000000
C    -2.360000000    -1.368000000    -3.830000000
C    -3.524000000    -0.710000000    -3.462000000
H    -4.009000000     0.038000000    -4.084000000
H    -1.585000000    -1.997000000    -5.769000000
C    -0.494000000     1.140000000    -4.991000000
H    -1.448000000     1.652000000    -5.090000000
C     0.607000000     1.941000000    -4.655000000
C     0.583000000     3.404000000    -4.392000000
H    -0.158000000     3.745000000    -5.118000000
H     1.496000000     3.996000000    -4.487000000
C     0.016000000     3.714000000    -3.028000000
C    -1.345000000     3.786000000    -2.781000000
H    -2.015000000     3.490000000    -3.585000000
C     0.970000000     3.922000000    -2.077000000
C     0.506000000     4.238000000    -0.804000000
H     1.211000000     4.267000000     0.024000000
C    -0.850000000     4.428000000    -0.568000000
O    -1.212000000     4.842000000     0.700000000
C    -1.597000000     3.776000000     1.568000000
C    -1.041000000     3.817000000     2.999000000
C    -1.505000000     2.986000000     4.018000000
H    -2.441000000     2.453000000     3.873000000
C     0.149000000     4.523000000     3.111000000
H     0.625000000     5.019000000     2.269000000
O    -3.039000000     3.671000000     1.581000000
H    -1.184000000     2.845000000     1.152000000
C    -1.783000000     4.150000000    -1.521000000
C    -3.309000000     4.303000000    -1.293000000
H    -3.795000000     4.590000000    -2.229000000
H    -3.519000000     5.193000000    -0.697000000
C    -3.888000000     3.099000000    -0.604000000
C    -4.394000000     2.125000000    -1.417000000
H    -4.521000000     2.337000000    -2.476000000
C    -3.725000000     2.853000000     0.747000000
C    -4.065000000     1.562000000     1.242000000
H    -3.827000000     1.243000000     2.254000000
C    -4.588000000     0.618000000     0.415000000
O    -4.923000000    -0.601000000     1.002000000
C    -3.919000000    -1.600000000     0.930000000
C    -3.672000000    -2.440000000     2.206000000
C    -3.797000000    -1.830000000     3.452000000
H    -4.180000000    -0.824000000     3.598000000
C    -3.319000000    -3.794000000     2.162000000
H    -3.288000000    -4.271000000     1.186000000
O    -4.211000000    -2.451000000    -0.210000000
H    -2.937000000    -1.165000000     0.691000000
C    -4.739000000     0.876000000    -0.928000000
C    -5.377000000    -0.230000000    -1.818000000
H    -5.985000000     0.145000000    -2.644000000
H    -6.049000000    -0.867000000    -1.239000000
C    -4.217000000    -1.039000000    -2.274000000
C    -3.694000000    -2.056000000    -1.421000000
C    -2.609000000    -2.842000000    -1.896000000
H    -2.357000000    -3.616000000    -1.175000000
C    -1.977000000    -2.463000000    -3.053000000
O    -0.932000000    -3.297000000    -3.440000000
C     0.339000000    -2.791000000    -3.146000000
H     0.206000000    -2.021000000    -2.372000000
C     1.263000000    -3.833000000    -2.481000000
C     2.578000000    -3.909000000    -2.860000000
H     3.050000000    -3.329000000    -3.649000000
C     0.786000000    -4.449000000    -1.353000000
H    -0.273000000    -4.390000000    -1.116000000
C     1.763000000    -5.162000000    -0.584000000
O     1.306000000    -5.804000000     0.556000000
C     3.071000000    -5.275000000    -0.957000000
H     3.825000000    -5.743000000    -0.330000000
C     3.468000000    -4.528000000    -2.063000000
O     4.815000000    -4.690000000    -2.459000000
C     5.603000000    -3.605000000    -2.819000000
C     5.711000000    -2.430000000    -2.028000000
H     5.133000000    -2.396000000    -1.108000000
C     6.432000000    -3.812000000    -3.976000000
H     6.399000000    -4.714000000    -4.582000000
C     7.410000000    -2.835000000    -4.183000000
H     8.111000000    -3.063000000    -4.981000000
C     7.442000000    -1.644000000    -3.434000000
H     8.180000000    -0.867000000    -3.617000000
C     6.590000000    -1.448000000    -2.335000000
O     6.868000000    -0.395000000    -1.547000000
C     5.909000000     0.483000000    -1.084000000
C     6.056000000     1.078000000     0.173000000
H     6.852000000     0.798000000     0.857000000
C     5.048000000     1.843000000     0.682000000
O     5.179000000     2.470000000     1.902000000
C     4.595000000     3.732000000     2.197000000
C     3.633000000     3.827000000     3.160000000
H     3.377000000     2.876000000     3.620000000
C     4.963000000     4.886000000     1.446000000
H     5.557000000     4.782000000     0.542000000
C     4.366000000     6.138000000     1.751000000
H     4.541000000     6.932000000     1.030000000
C     3.441000000     6.178000000     2.838000000
H     3.093000000     7.173000000     3.103000000
C     3.082000000     5.056000000     3.510000000
O     2.056000000     5.077000000     4.402000000
C     0.890000000     4.428000000     4.277000000
C     0.335000000     3.784000000     5.389000000
H     0.839000000     3.967000000     6.335000000
C    -0.822000000     3.013000000     5.262000000
O    -1.323000000     2.408000000     6.451000000
C    -2.467000000     1.635000000     6.464000000
C    -2.377000000     0.247000000     6.112000000
H    -1.399000000    -0.078000000     5.766000000
C    -3.684000000     2.079000000     7.002000000
H    -3.825000000     3.073000000     7.419000000
C    -4.739000000     1.200000000     7.098000000
H    -5.655000000     1.563000000     7.557000000
C    -4.576000000    -0.127000000     6.630000000
H    -5.484000000    -0.723000000     6.649000000
C    -3.411000000    -0.584000000     6.174000000
O    -3.180000000    -1.908000000     5.888000000
C    -3.253000000    -2.471000000     4.614000000
C    -2.829000000    -3.769000000     4.505000000
H    -2.359000000    -4.212000000     5.380000000
C    -2.973000000    -4.493000000     3.324000000
O    -2.537000000    -5.814000000     3.312000000
C    -1.919000000    -6.255000000     2.087000000
C    -2.586000000    -6.939000000     1.161000000
H    -3.603000000    -7.299000000     1.291000000
C    -1.942000000    -7.407000000     0.066000000
H    -2.459000000    -7.998000000    -0.686000000
C    -0.602000000    -7.064000000    -0.160000000
H    -0.130000000    -7.323000000    -1.105000000
C     0.039000000    -6.189000000     0.716000000
C    -0.567000000    -5.904000000     1.945000000
H    -0.145000000    -5.292000000     2.738000000
C    -0.136000000    -1.774000000     2.004000000
H    -0.032000000    -2.807000000     2.327000000
C    -0.431000000    -1.396000000     0.733000000
H    -0.844000000    -2.164000000     0.084000000
C    -0.249000000    -0.057000000     0.265000000
C    -0.777000000     0.348000000    -1.151000000
H    -0.189000000    -0.100000000    -1.955000000
H    -1.838000000     0.159000000    -1.325000000
H    -0.638000000     1.410000000    -1.363000000
C     0.201000000     0.826000000     1.217000000
H     0.366000000     1.858000000     0.917000000
C     0.436000000     0.427000000     2.527000000
H     0.804000000     1.059000000     3.331000000
C     0.315000000    -0.884000000     2.900000000
C     0.551000000    -1.348000000     4.320000000
O     1.330000000    -0.732000000     5.015000000
O     0.036000000    -2.366000000     4.804000000
O     5.425000000    -0.667000000     3.449000000
H     4.956000000    -0.963000000     2.669000000
H     6.096000000    -0.072000000     3.114000000
O     0.135000000    -6.998000000     6.636000000
H     0.063000000    -6.044000000     6.611000000
H     0.397000000    -7.195000000     7.536000000
O     2.997000000     0.801000000     8.641000000
H     3.317000000     0.523000000     9.499000000
H     3.491000000     1.598000000     8.448000000
O     0.224000000     2.749000000     9.850000000
H     0.319000000     2.071000000     9.180000000
H     1.025000000     3.268000000     9.781000000
O     1.710000000    -7.101000000     4.290000000
H     1.329000000    -7.302000000     5.144000000
H     1.821000000    -6.150000000     4.295000000
O     3.446000000     0.865000000     4.895000000
H     2.657000000     0.329000000     4.970000000
H     3.963000000     0.437000000     4.213000000
O     6.661000000    -3.334000000     3.765000000
H     6.320000000    -2.471000000     4.000000000
H     6.042000000    -3.668000000     3.115000000
O     3.139000000    -5.589000000     7.084000000
H     3.043000000    -6.492000000     7.387000000
H     3.902000000    -5.611000000     6.506000000
O    -2.465000000    -4.927000000     8.181000000
H    -3.189000000    -4.635000000     7.626000000
H    -1.702000000    -4.458000000     7.844000000
O     0.453000000     0.592000000     7.651000000
H     0.584000000     0.065000000     6.863000000
H     1.281000000     0.520000000     8.127000000
O     4.392000000    -4.254000000     2.670000000
H     4.524000000    -5.129000000     2.305000000
H     3.626000000    -4.345000000     3.237000000
O     2.407000000    -3.591000000     8.846000000
H     2.377000000    -2.847000000     8.245000000
H     2.714000000    -4.321000000     8.308000000
O    -0.221000000    -3.803000000     7.058000000
H    -0.205000000    -3.341000000     6.219000000
H     0.264000000    -3.232000000     7.654000000
O    -1.423000000    -0.018000000     9.694000000
H    -1.341000000     0.192000000     8.763000000
H    -0.520000000    -0.114000000     9.998000000
O     5.504000000    -2.839000000     7.081000000
H     5.658000000    -2.454000000     7.944000000
H     4.643000000    -2.510000000     6.822000000
O     4.878000000     2.595000000     6.194000000
H     5.715000000     2.129000000     6.215000000
H     4.293000000     2.014000000     5.707000000
O     2.163000000    -4.104000000     4.303000000
H     1.367000000    -3.574000000     4.269000000
H     2.481000000    -4.003000000     5.200000000
O     3.913000000    -1.492000000     1.482000000
H     3.894000000    -2.440000000     1.609000000
H     2.991000000    -1.237000000     1.443000000
O     2.739000000    -1.643000000     6.966000000
H     2.857000000    -0.798000000     7.399000000
H     2.342000000    -1.427000000     6.123000000
