218
-1460.46445
C     4.800000000     2.040000000    -0.894000000
H     4.345000000     3.008000000    -0.706000000
C     4.136000000     1.218000000    -1.805000000
C     4.542000000    -0.077000000    -1.910000000
H     3.927000000    -0.816000000    -2.419000000
C     2.857000000     1.566000000    -2.495000000
O     2.813000000     2.976000000    -2.618000000
H     2.161000000     1.135000000    -1.760000000
O     2.696000000     0.963000000    -3.790000000
C     1.484000000     0.541000000    -4.210000000
C     1.331000000    -0.763000000    -4.186000000
H     2.176000000    -1.394000000    -3.920000000
C     0.070000000    -1.362000000    -4.362000000
O    -0.033000000    -2.706000000    -4.065000000
C    -1.019000000    -0.574000000    -4.727000000
C    -2.417000000    -1.210000000    -4.983000000
H    -3.025000000    -0.577000000    -5.633000000
C    -3.097000000    -1.314000000    -3.657000000
C    -3.861000000    -0.313000000    -3.239000000
H    -4.007000000     0.529000000    -3.910000000
H    -2.406000000    -2.174000000    -5.496000000
C    -0.825000000     0.842000000    -4.882000000
H    -1.660000000     1.514000000    -5.062000000
C     0.440000000     1.372000000    -4.566000000
C     0.676000000     2.883000000    -4.691000000
H    -0.022000000     3.370000000    -5.375000000
H     1.669000000     2.982000000    -5.135000000
C     0.550000000     3.528000000    -3.350000000
C    -0.695000000     4.035000000    -2.929000000
H    -1.547000000     4.092000000    -3.602000000
C     1.627000000     3.644000000    -2.428000000
C     1.528000000     4.269000000    -1.213000000
H     2.340000000     4.220000000    -0.491000000
C     0.294000000     4.696000000    -0.751000000
O     0.197000000     5.072000000     0.544000000
C    -0.402000000     4.139000000     1.356000000
C     0.341000000     3.986000000     2.709000000
C    -0.109000000     3.253000000     3.794000000
H    -1.143000000     2.923000000     3.736000000
C     1.612000000     4.489000000     2.758000000
H     1.983000000     5.087000000     1.929000000
O    -1.766000000     4.403000000     1.639000000
H    -0.373000000     3.133000000     0.912000000
C    -0.886000000     4.565000000    -1.600000000
C    -2.234000000     4.981000000    -1.183000000
H    -2.752000000     5.283000000    -2.095000000
H    -2.236000000     5.882000000    -0.566000000
C    -2.841000000     3.798000000    -0.458000000
C    -3.638000000     2.898000000    -1.159000000
H    -3.736000000     3.067000000    -2.229000000
C    -2.630000000     3.602000000     0.898000000
C    -3.311000000     2.641000000     1.559000000
H    -3.173000000     2.625000000     2.637000000
C    -4.141000000     1.750000000     0.897000000
O    -4.558000000     0.597000000     1.521000000
C    -3.927000000    -0.595000000     1.167000000
C    -3.594000000    -1.467000000     2.384000000
C    -3.527000000    -0.862000000     3.626000000
H    -3.765000000     0.180000000     3.825000000
C    -3.089000000    -2.772000000     2.252000000
H    -3.023000000    -3.198000000     1.254000000
O    -4.667000000    -1.348000000     0.195000000
H    -2.920000000    -0.340000000     0.805000000
C    -4.347000000     1.881000000    -0.485000000
C    -5.180000000     0.985000000    -1.386000000
H    -5.615000000     1.456000000    -2.270000000
H    -6.084000000     0.682000000    -0.854000000
C    -4.372000000    -0.218000000    -1.903000000
C    -4.207000000    -1.330000000    -1.057000000
C    -3.509000000    -2.450000000    -1.527000000
H    -3.311000000    -3.300000000    -0.879000000
C    -2.923000000    -2.394000000    -2.804000000
O    -2.057000000    -3.382000000    -3.190000000
C    -0.695000000    -3.170000000    -2.888000000
H    -0.573000000    -2.361000000    -2.152000000
C    -0.131000000    -4.434000000    -2.318000000
C     1.254000000    -4.474000000    -1.984000000
H     1.871000000    -3.587000000    -2.104000000
C    -0.923000000    -5.513000000    -1.843000000
H    -2.006000000    -5.572000000    -1.918000000
C    -0.331000000    -6.657000000    -1.370000000
O    -1.114000000    -7.541000000    -0.620000000
C     1.018000000    -6.682000000    -1.108000000
H     1.545000000    -7.546000000    -0.714000000
C     1.771000000    -5.581000000    -1.397000000
O     3.137000000    -5.626000000    -1.120000000
C     4.005000000    -4.818000000    -1.739000000
C     4.703000000    -3.829000000    -1.019000000
H     4.459000000    -3.701000000     0.032000000
C     4.193000000    -4.895000000    -3.163000000
H     3.582000000    -5.633000000    -3.677000000
C     5.026000000    -4.024000000    -3.854000000
H     5.226000000    -4.090000000    -4.920000000
C     5.595000000    -3.002000000    -3.136000000
H     6.119000000    -2.280000000    -3.757000000
C     5.396000000    -2.861000000    -1.738000000
O     5.999000000    -1.836000000    -1.036000000
C     5.686000000    -0.536000000    -1.177000000
C     6.349000000     0.354000000    -0.299000000
H     7.205000000    -0.098000000     0.195000000
C     5.866000000     1.609000000    -0.153000000
O     6.329000000     2.376000000     0.840000000
C     5.820000000     3.563000000     1.171000000
C     5.092000000     3.616000000     2.368000000
H     4.936000000     2.725000000     2.971000000
C     6.044000000     4.680000000     0.383000000
H     6.593000000     4.626000000    -0.554000000
C     5.526000000     5.916000000     0.857000000
H     5.639000000     6.867000000     0.343000000
C     4.689000000     5.921000000     1.941000000
H     4.151000000     6.830000000     2.196000000
C     4.493000000     4.793000000     2.684000000
O     3.741000000     4.781000000     3.851000000
C     2.489000000     4.201000000     3.866000000
C     2.011000000     3.466000000     4.943000000
H     2.628000000     3.379000000     5.834000000
C     0.765000000     2.946000000     4.883000000
O     0.343000000     2.109000000     5.933000000
C    -0.914000000     1.775000000     6.148000000
C    -1.356000000     0.510000000     5.931000000
H    -0.683000000    -0.156000000     5.397000000
C    -1.798000000     2.755000000     6.653000000
H    -1.360000000     3.739000000     6.801000000
C    -3.051000000     2.399000000     7.091000000
H    -3.798000000     3.138000000     7.370000000
C    -3.492000000     1.060000000     6.989000000
H    -4.520000000     0.820000000     7.248000000
C    -2.646000000     0.100000000     6.353000000
O    -3.048000000    -1.200000000     6.022000000
C    -3.084000000    -1.625000000     4.707000000
C    -2.729000000    -2.979000000     4.566000000
H    -2.471000000    -3.487000000     5.491000000
C    -2.565000000    -3.479000000     3.319000000
O    -1.971000000    -4.725000000     3.115000000
C    -2.422000000    -5.564000000     2.174000000
C    -3.816000000    -5.781000000     2.050000000
H    -4.507000000    -5.308000000     2.743000000
C    -4.321000000    -6.641000000     1.083000000
H    -5.390000000    -6.799000000     0.967000000
C    -3.439000000    -7.283000000     0.193000000
H    -3.829000000    -8.039000000    -0.485000000
C    -2.086000000    -7.083000000     0.306000000
C    -1.590000000    -6.228000000     1.280000000
H    -0.526000000    -6.151000000     1.487000000
C     0.402000000    -1.077000000     2.813000000
H    -0.016000000    -1.793000000     3.516000000
C    -0.088000000    -0.887000000     1.544000000
H    -0.901000000    -1.557000000     1.275000000
C     0.421000000     0.110000000     0.732000000
C    -0.201000000     0.348000000    -0.599000000
H    -1.132000000    -0.194000000    -0.779000000
H    -0.471000000     1.397000000    -0.737000000
H     0.378000000    -0.085000000    -1.418000000
C     1.507000000     0.823000000     1.196000000
H     1.913000000     1.640000000     0.605000000
C     2.060000000     0.641000000     2.432000000
H     2.945000000     1.233000000     2.650000000
C     1.501000000    -0.341000000     3.261000000
C     2.110000000    -0.720000000     4.603000000
O     3.066000000    -0.041000000     4.968000000
O     1.739000000    -1.738000000     5.176000000
O     4.818000000    -1.526000000     7.869000000
H     5.761000000    -1.681000000     7.820000000
H     4.695000000    -1.055000000     8.693000000
O     2.119000000    -3.473000000     9.657000000
H     2.475000000    -3.332000000     8.780000000
H     2.890000000    -3.523000000    10.223000000
O     3.313000000    -1.881000000     1.306000000
H     3.798000000    -1.666000000     2.103000000
H     2.775000000    -1.108000000     1.137000000
O     7.112000000     0.478000000     6.629000000
H     6.654000000    -0.361000000     6.580000000
H     6.424000000     1.133000000     6.508000000
O    -0.204000000    -1.906000000     9.036000000
H     0.226000000    -1.328000000     8.406000000
H     0.517000000    -2.351000000     9.483000000
O     3.029000000     2.387000000     8.242000000
H     2.246000000     2.898000000     8.034000000
H     3.289000000     2.691000000     9.112000000
O     5.410000000    -3.867000000     4.966000000
H     4.819000000    -4.190000000     5.646000000
H     5.930000000    -4.631000000     4.718000000
O     7.398000000    -0.031000000     2.945000000
H     6.541000000     0.217000000     3.291000000
H     7.333000000    -0.975000000     2.799000000
O     7.445000000    -2.650000000     3.332000000
H     6.817000000    -2.989000000     3.970000000
H     8.301000000    -2.826000000     3.721000000
O     0.698000000    -6.973000000     5.867000000
H    -0.192000000    -7.227000000     5.624000000
H     0.726000000    -6.028000000     5.719000000
O     3.975000000    -5.903000000     6.222000000
H     4.032000000    -6.728000000     6.704000000
H     3.379000000    -5.363000000     6.741000000
O     4.716000000     1.650000000     6.071000000
H     4.136000000     1.073000000     5.576000000
H     4.247000000     1.817000000     6.889000000
O     1.493000000    -0.039000000     7.778000000
H     1.904000000     0.825000000     7.801000000
H     1.766000000    -0.412000000     6.940000000
O     1.930000000    -6.256000000     1.839000000
H     2.026000000    -5.930000000     0.944000000
H     1.818000000    -5.468000000     2.370000000
O     2.851000000    -3.079000000     7.174000000
H     2.469000000    -2.613000000     6.430000000
H     3.684000000    -2.635000000     7.334000000
O     0.184000000    -4.170000000     5.904000000
H     0.618000000    -3.472000000     6.395000000
H     0.248000000    -3.895000000     4.990000000
O     6.421000000     3.484000000     5.334000000
H     5.766000000     2.787000000     5.388000000
H     6.021000000     4.224000000     5.790000000
O     1.938000000    -3.891000000     3.231000000
H     2.076000000    -3.259000000     3.937000000
H     2.208000000    -3.426000000     2.439000000
O     4.801000000    -1.548000000     3.472000000
H     5.137000000    -2.371000000     3.826000000
H     4.323000000    -1.152000000     4.201000000
