218
-1470.30303
C     4.306000000     2.722000000    -0.607000000
H     3.721000000     3.488000000    -0.104000000
C     3.931000000     1.959000000    -1.748000000
C     4.846000000     1.054000000    -2.260000000
H     4.824000000     0.581000000    -3.238000000
C     2.569000000     2.234000000    -2.413000000
O     2.206000000     3.600000000    -2.336000000
H     1.802000000     1.629000000    -1.906000000
O     2.689000000     1.881000000    -3.742000000
C     1.626000000     1.126000000    -4.207000000
C     1.760000000    -0.274000000    -4.220000000
H     2.768000000    -0.650000000    -4.067000000
C     0.691000000    -1.095000000    -4.531000000
O     0.904000000    -2.425000000    -4.192000000
C    -0.566000000    -0.624000000    -4.793000000
C    -1.772000000    -1.581000000    -4.998000000
H    -2.467000000    -1.172000000    -5.734000000
C    -2.516000000    -1.753000000    -3.721000000
C    -3.633000000    -0.976000000    -3.313000000
H    -3.939000000    -0.171000000    -3.976000000
H    -1.520000000    -2.568000000    -5.393000000
C    -0.697000000     0.782000000    -4.819000000
H    -1.672000000     1.163000000    -5.112000000
C     0.319000000     1.651000000    -4.480000000
C     0.147000000     3.118000000    -4.496000000
H    -0.683000000     3.357000000    -5.164000000
H     0.913000000     3.743000000    -4.961000000
C    -0.133000000     3.566000000    -3.109000000
C    -1.456000000     3.807000000    -2.776000000
H    -2.289000000     3.700000000    -3.466000000
C     0.879000000     3.728000000    -2.114000000
C     0.493000000     4.269000000    -0.854000000
H     1.242000000     4.435000000    -0.085000000
C    -0.880000000     4.500000000    -0.604000000
O    -1.247000000     4.833000000     0.699000000
C    -1.800000000     3.728000000     1.513000000
C    -1.107000000     3.757000000     2.838000000
C    -1.850000000     3.422000000     4.029000000
H    -2.917000000     3.212000000     4.001000000
C     0.288000000     3.952000000     2.941000000
H     0.805000000     3.951000000     1.985000000
O    -3.177000000     3.788000000     1.605000000
H    -1.318000000     2.842000000     1.074000000
C    -1.897000000     4.289000000    -1.543000000
C    -3.413000000     4.457000000    -1.314000000
H    -3.936000000     4.699000000    -2.241000000
H    -3.566000000     5.342000000    -0.693000000
C    -3.890000000     3.136000000    -0.613000000
C    -4.330000000     2.049000000    -1.433000000
H    -4.330000000     2.176000000    -2.512000000
C    -3.913000000     2.940000000     0.808000000
C    -4.310000000     1.696000000     1.372000000
H    -4.107000000     1.414000000     2.402000000
C    -4.753000000     0.662000000     0.509000000
O    -4.950000000    -0.574000000     1.180000000
C    -3.898000000    -1.556000000     0.948000000
C    -3.694000000    -2.332000000     2.222000000
C    -3.536000000    -1.710000000     3.459000000
H    -3.662000000    -0.634000000     3.550000000
C    -3.444000000    -3.749000000     2.145000000
H    -3.445000000    -4.306000000     1.211000000
O    -4.317000000    -2.493000000    -0.029000000
H    -2.970000000    -1.021000000     0.699000000
C    -4.841000000     0.853000000    -0.851000000
C    -5.364000000    -0.315000000    -1.688000000
H    -5.922000000     0.024000000    -2.564000000
H    -6.087000000    -0.934000000    -1.153000000
C    -4.226000000    -1.200000000    -2.091000000
C    -3.847000000    -2.286000000    -1.321000000
C    -2.756000000    -3.077000000    -1.715000000
H    -2.424000000    -3.854000000    -1.031000000
C    -2.019000000    -2.722000000    -2.801000000
O    -0.881000000    -3.496000000    -2.939000000
C     0.386000000    -2.827000000    -2.909000000
H     0.173000000    -2.010000000    -2.203000000
C     1.368000000    -3.662000000    -2.045000000
C     2.672000000    -3.665000000    -2.444000000
H     3.033000000    -3.091000000    -3.294000000
C     1.001000000    -4.193000000    -0.821000000
H     0.000000000    -3.872000000    -0.544000000
C     1.875000000    -4.998000000    -0.050000000
O     1.566000000    -5.596000000     1.114000000
C     3.224000000    -5.091000000    -0.529000000
H     3.956000000    -5.502000000     0.161000000
C     3.614000000    -4.407000000    -1.685000000
O     4.917000000    -4.439000000    -2.050000000
C     5.616000000    -3.364000000    -2.602000000
C     5.897000000    -2.161000000    -1.991000000
H     5.537000000    -2.026000000    -0.974000000
C     6.237000000    -3.687000000    -3.863000000
H     6.038000000    -4.667000000    -4.290000000
C     6.924000000    -2.701000000    -4.574000000
H     7.289000000    -2.864000000    -5.585000000
C     7.138000000    -1.456000000    -3.983000000
H     7.745000000    -0.710000000    -4.489000000
C     6.707000000    -1.207000000    -2.685000000
O     6.970000000    -0.009000000    -2.107000000
C     6.053000000     0.844000000    -1.541000000
C     6.397000000     1.551000000    -0.433000000
H     7.262000000     1.275000000     0.163000000
C     5.501000000     2.455000000     0.122000000
O     5.913000000     3.065000000     1.230000000
C     5.109000000     3.973000000     1.833000000
C     4.157000000     3.546000000     2.697000000
H     3.973000000     2.489000000     2.873000000
C     5.208000000     5.300000000     1.584000000
H     6.020000000     5.557000000     0.908000000
C     4.314000000     6.249000000     2.112000000
H     4.349000000     7.311000000     1.881000000
C     3.266000000     5.742000000     2.932000000
H     2.580000000     6.419000000     3.436000000
C     3.215000000     4.397000000     3.270000000
O     2.346000000     3.963000000     4.247000000
C     0.991000000     3.898000000     4.150000000
C     0.222000000     3.655000000     5.263000000
H     0.837000000     3.443000000     6.134000000
C    -1.155000000     3.308000000     5.239000000
O    -1.793000000     2.879000000     6.371000000
C    -2.750000000     1.880000000     6.354000000
C    -2.343000000     0.563000000     6.115000000
H    -1.282000000     0.334000000     6.180000000
C    -4.117000000     2.153000000     6.370000000
H    -4.435000000     3.192000000     6.380000000
C    -5.063000000     1.155000000     6.367000000
H    -6.089000000     1.476000000     6.530000000
C    -4.710000000    -0.143000000     6.086000000
H    -5.520000000    -0.867000000     6.120000000
C    -3.329000000    -0.429000000     5.895000000
O    -2.925000000    -1.742000000     5.787000000
C    -3.121000000    -2.413000000     4.600000000
C    -2.844000000    -3.754000000     4.510000000
H    -2.529000000    -4.183000000     5.457000000
C    -3.008000000    -4.452000000     3.280000000
O    -2.677000000    -5.814000000     3.187000000
C    -1.755000000    -6.358000000     2.251000000
C    -2.086000000    -7.459000000     1.460000000
H    -2.995000000    -8.038000000     1.600000000
C    -1.193000000    -7.827000000     0.490000000
H    -1.412000000    -8.695000000    -0.126000000
C     0.000000000    -7.164000000     0.319000000
H     0.691000000    -7.460000000    -0.467000000
C     0.347000000    -6.176000000     1.205000000
C    -0.546000000    -5.734000000     2.155000000
H    -0.308000000    -4.904000000     2.816000000
C     0.803000000    -1.757000000     1.924000000
H     0.795000000    -2.816000000     2.171000000
C     0.049000000    -1.384000000     0.817000000
H    -0.599000000    -2.131000000     0.364000000
C     0.057000000    -0.021000000     0.473000000
C    -0.584000000     0.358000000    -0.829000000
H     0.118000000     0.244000000    -1.657000000
H    -1.515000000    -0.139000000    -1.110000000
H    -0.767000000     1.426000000    -0.966000000
C     0.663000000     0.936000000     1.242000000
H     0.666000000     1.977000000     0.932000000
C     1.323000000     0.574000000     2.412000000
H     1.829000000     1.349000000     2.982000000
C     1.427000000    -0.794000000     2.782000000
C     2.137000000    -1.217000000     4.027000000
O     2.469000000    -0.462000000     4.900000000
O     2.436000000    -2.402000000     4.117000000
O     5.893000000    -1.249000000     8.566000000
H     5.557000000    -2.060000000     8.947000000
H     5.824000000    -1.381000000     7.620000000
O     5.840000000    -0.421000000     2.681000000
H     5.294000000    -0.627000000     1.922000000
H     6.486000000    -1.127000000     2.710000000
O     0.257000000    -4.896000000     7.442000000
H    -0.585000000    -5.351000000     7.433000000
H     0.052000000    -4.019000000     7.767000000
O     3.180000000    -0.456000000     8.317000000
H     3.652000000    -0.428000000     9.149000000
H     3.677000000    -1.074000000     7.781000000
O    -0.647000000     1.375000000     9.103000000
H    -1.263000000     0.798000000     9.554000000
H    -0.338000000     0.859000000     8.358000000
O     5.108000000     0.706000000     5.139000000
H     4.263000000     0.503000000     5.540000000
H     5.059000000     0.316000000     4.266000000
O     8.282000000     0.795000000     2.974000000
H     8.601000000     0.263000000     3.703000000
H     7.332000000     0.679000000     2.991000000
O     6.443000000    -2.979000000     5.418000000
H     6.382000000    -2.790000000     4.482000000
H     7.251000000    -3.484000000     5.508000000
O     2.826000000    -7.620000000     3.996000000
H     3.519000000    -7.906000000     4.592000000
H     2.393000000    -6.903000000     4.459000000
O     3.101000000     2.588000000     7.794000000
H     3.162000000     1.634000000     7.843000000
H     3.153000000     2.784000000     6.859000000
O     1.079000000     0.661000000     7.056000000
H     1.212000000     0.198000000     6.229000000
H     1.559000000     0.141000000     7.701000000
O     6.376000000    -5.362000000     2.565000000
H     5.468000000    -5.100000000     2.716000000
H     6.494000000    -5.280000000     1.618000000
O     3.805000000    -4.314000000     3.050000000
H     3.532000000    -3.487000000     3.445000000
H     3.233000000    -4.971000000     3.448000000
O     2.959000000    -4.150000000     8.262000000
H     2.991000000    -3.563000000     7.507000000
H     2.430000000    -4.891000000     7.966000000
O    -1.018000000    -2.398000000     7.897000000
H    -1.469000000    -1.847000000     8.537000000
H    -0.197000000    -1.940000000     7.722000000
O     7.142000000     0.961000000     6.790000000
H     6.863000000     0.391000000     7.507000000
H     6.420000000     0.929000000     6.163000000
O     1.781000000    -5.013000000     4.773000000
H     2.040000000    -4.106000000     4.611000000
H     1.282000000    -4.978000000     5.589000000
O     4.005000000    -2.030000000     1.271000000
H     3.981000000    -2.642000000     2.007000000
H     3.092000000    -1.950000000     0.996000000
O     4.164000000    -2.057000000     6.487000000
H     4.936000000    -2.513000000     6.151000000
H     3.637000000    -1.872000000     5.709000000
