218
-1446.98577
C     3.943000000     3.226000000    -1.396000000
H     3.346000000     4.127000000    -1.285000000
C     3.381000000     2.129000000    -2.051000000
C     4.127000000     0.969000000    -2.037000000
H     3.806000000     0.157000000    -2.684000000
C     2.052000000     2.151000000    -2.730000000
O     1.532000000     3.467000000    -2.911000000
H     1.413000000     1.627000000    -2.004000000
O     2.117000000     1.413000000    -4.003000000
C     1.064000000     0.622000000    -4.251000000
C     1.216000000    -0.748000000    -4.078000000
H     2.235000000    -1.084000000    -3.904000000
C     0.178000000    -1.641000000    -4.198000000
O     0.446000000    -3.011000000    -4.013000000
C    -1.062000000    -1.158000000    -4.677000000
C    -2.307000000    -2.015000000    -4.784000000
H    -3.096000000    -1.576000000    -5.398000000
C    -2.872000000    -2.332000000    -3.411000000
C    -3.849000000    -1.536000000    -2.826000000
H    -4.246000000    -0.736000000    -3.446000000
H    -1.888000000    -2.894000000    -5.278000000
C    -1.265000000     0.222000000    -4.839000000
H    -2.271000000     0.547000000    -5.093000000
C    -0.204000000     1.121000000    -4.564000000
C    -0.535000000     2.624000000    -4.674000000
H    -1.394000000     2.827000000    -5.316000000
H     0.364000000     3.009000000    -5.160000000
C    -0.768000000     3.285000000    -3.313000000
C    -2.124000000     3.536000000    -2.889000000
H    -2.888000000     3.241000000    -3.604000000
C     0.262000000     3.686000000    -2.504000000
C     0.008000000     4.361000000    -1.332000000
H     0.744000000     4.767000000    -0.643000000
C    -1.276000000     4.544000000    -0.889000000
O    -1.469000000     4.988000000     0.409000000
C    -1.710000000     3.938000000     1.431000000
C    -0.887000000     4.089000000     2.668000000
C    -1.359000000     3.639000000     3.907000000
H    -2.300000000     3.093000000     3.894000000
C     0.394000000     4.569000000     2.505000000
H     0.793000000     4.724000000     1.506000000
O    -3.121000000     3.745000000     1.636000000
H    -1.407000000     2.969000000     1.007000000
C    -2.366000000     4.068000000    -1.631000000
C    -3.767000000     4.093000000    -1.168000000
H    -4.433000000     4.216000000    -2.024000000
H    -3.901000000     4.974000000    -0.537000000
C    -4.085000000     2.833000000    -0.403000000
C    -4.615000000     1.717000000    -1.030000000
H    -4.993000000     1.782000000    -2.047000000
C    -3.720000000     2.727000000     0.968000000
C    -3.894000000     1.556000000     1.691000000
H    -3.501000000     1.478000000     2.701000000
C    -4.286000000     0.440000000     0.969000000
O    -4.277000000    -0.783000000     1.627000000
C    -3.285000000    -1.799000000     1.350000000
C    -2.700000000    -2.297000000     2.646000000
C    -2.754000000    -1.651000000     3.900000000
H    -3.343000000    -0.738000000     3.914000000
C    -1.861000000    -3.426000000     2.518000000
H    -1.871000000    -4.027000000     1.613000000
O    -3.862000000    -2.867000000     0.533000000
H    -2.438000000    -1.360000000     0.802000000
C    -4.678000000     0.518000000    -0.392000000
C    -5.339000000    -0.743000000    -1.074000000
H    -6.047000000    -0.475000000    -1.860000000
H    -5.969000000    -1.321000000    -0.395000000
C    -4.337000000    -1.729000000    -1.564000000
C    -3.728000000    -2.717000000    -0.801000000
C    -2.735000000    -3.525000000    -1.327000000
H    -2.097000000    -4.233000000    -0.804000000
C    -2.315000000    -3.378000000    -2.636000000
O    -1.173000000    -4.110000000    -2.907000000
C     0.064000000    -3.474000000    -2.788000000
H    -0.129000000    -2.668000000    -2.064000000
C     1.177000000    -4.314000000    -2.215000000
C     2.516000000    -4.080000000    -2.543000000
H     2.679000000    -3.285000000    -3.266000000
C     0.895000000    -5.357000000    -1.363000000
H    -0.145000000    -5.616000000    -1.180000000
C     1.928000000    -6.141000000    -0.854000000
O     1.639000000    -7.167000000     0.000000000
C     3.243000000    -5.931000000    -1.174000000
H     4.069000000    -6.510000000    -0.769000000
C     3.499000000    -4.920000000    -2.056000000
O     4.840000000    -4.668000000    -2.241000000
C     5.332000000    -3.492000000    -2.646000000
C     5.403000000    -2.375000000    -1.856000000
H     4.903000000    -2.436000000    -0.893000000
C     5.781000000    -3.454000000    -3.973000000
H     5.583000000    -4.342000000    -4.568000000
C     6.322000000    -2.264000000    -4.489000000
H     6.690000000    -2.192000000    -5.509000000
C     6.424000000    -1.143000000    -3.688000000
H     6.996000000    -0.251000000    -3.929000000
C     5.998000000    -1.285000000    -2.389000000
O     6.204000000    -0.235000000    -1.594000000
C     5.388000000     0.891000000    -1.471000000
C     5.922000000     1.997000000    -0.765000000
H     6.915000000     2.023000000    -0.324000000
C     5.161000000     3.176000000    -0.764000000
O     5.651000000     4.341000000    -0.122000000
C     4.787000000     5.149000000     0.633000000
C     4.217000000     4.670000000     1.813000000
H     4.505000000     3.694000000     2.193000000
C     4.475000000     6.413000000     0.195000000
H     4.801000000     6.930000000    -0.704000000
C     3.650000000     7.228000000     0.946000000
H     3.540000000     8.232000000     0.545000000
C     2.949000000     6.699000000     2.029000000
H     2.244000000     7.333000000     2.562000000
C     3.194000000     5.404000000     2.474000000
O     2.512000000     4.945000000     3.636000000
C     1.199000000     4.682000000     3.644000000
C     0.676000000     4.389000000     4.946000000
H     1.310000000     4.429000000     5.828000000
C    -0.621000000     3.819000000     5.106000000
O    -1.050000000     3.382000000     6.328000000
C    -1.966000000     2.383000000     6.538000000
C    -1.566000000     1.078000000     6.347000000
H    -0.494000000     0.911000000     6.279000000
C    -3.312000000     2.724000000     6.613000000
H    -3.550000000     3.783000000     6.667000000
C    -4.222000000     1.746000000     6.655000000
H    -5.275000000     1.934000000     6.848000000
C    -3.834000000     0.431000000     6.507000000
H    -4.543000000    -0.377000000     6.673000000
C    -2.524000000     0.079000000     6.323000000
O    -2.078000000    -1.241000000     6.183000000
C    -2.063000000    -1.979000000     5.040000000
C    -1.228000000    -3.086000000     4.898000000
H    -0.534000000    -3.374000000     5.683000000
C    -1.026000000    -3.789000000     3.667000000
O    -0.292000000    -4.958000000     3.720000000
C    -0.427000000    -5.985000000     2.812000000
C    -1.368000000    -6.966000000     2.869000000
H    -2.176000000    -6.822000000     3.582000000
C    -1.375000000    -8.005000000     1.924000000
H    -2.116000000    -8.795000000     2.019000000
C    -0.375000000    -8.122000000     0.959000000
H    -0.487000000    -8.883000000     0.190000000
C     0.633000000    -7.186000000     0.945000000
C     0.650000000    -6.136000000     1.907000000
H     1.483000000    -5.446000000     2.013000000
C     1.462000000    -1.852000000     2.030000000
H     1.823000000    -2.874000000     2.108000000
C     0.774000000    -1.396000000     0.855000000
H     0.729000000    -1.971000000    -0.065000000
C     0.382000000    -0.067000000     0.715000000
C    -0.393000000     0.572000000    -0.408000000
H    -1.398000000     0.842000000    -0.078000000
H     0.191000000     1.484000000    -0.551000000
H    -0.380000000    -0.027000000    -1.321000000
C     0.662000000     0.831000000     1.742000000
H     0.599000000     1.914000000     1.670000000
C     1.272000000     0.417000000     2.964000000
H     1.430000000     1.160000000     3.742000000
C     1.682000000    -0.926000000     3.108000000
C     2.325000000    -1.308000000     4.409000000
O     2.433000000    -0.454000000     5.337000000
O     2.955000000    -2.326000000     4.487000000
O     7.213000000     0.723000000     5.524000000
H     6.544000000     0.046000000     5.426000000
H     8.008000000     0.243000000     5.756000000
O     6.986000000     2.624000000     3.495000000
H     6.267000000     2.044000000     3.241000000
H     7.206000000     2.354000000     4.387000000
O     0.298000000    -7.034000000     5.612000000
H     0.105000000    -6.610000000     4.775000000
H     1.063000000    -7.581000000     5.432000000
O     1.989000000     1.229000000     8.873000000
H     1.112000000     1.390000000     9.221000000
H     2.242000000     2.058000000     8.467000000
O     7.289000000    -2.756000000     8.480000000
H     6.750000000    -3.243000000     7.856000000
H     7.878000000    -3.413000000     8.851000000
O     5.948000000    -4.328000000     6.676000000
H     5.498000000    -4.519000000     5.853000000
H     5.666000000    -5.023000000     7.271000000
O     3.897000000     1.694000000     6.349000000
H     4.220000000     1.039000000     6.968000000
H     3.371000000     1.194000000     5.724000000
O     7.421000000    -3.559000000     3.277000000
H     7.504000000    -4.156000000     4.020000000
H     8.323000000    -3.381000000     3.011000000
O     3.136000000     3.781000000     7.883000000
H     3.269000000     2.972000000     7.389000000
H     3.489000000     4.468000000     7.318000000
O    -0.688000000    -2.686000000     8.574000000
H    -0.381000000    -3.591000000     8.510000000
H    -0.013000000    -2.173000000     8.130000000
O     5.096000000    -6.074000000     2.382000000
H     4.813000000    -5.580000000     3.153000000
H     5.841000000    -5.578000000     2.041000000
O     5.297000000    -2.209000000     2.281000000
H     4.598000000    -2.383000000     2.911000000
H     6.102000000    -2.440000000     2.744000000
O     1.815000000    -1.331000000     7.889000000
H     1.677000000    -0.487000000     8.319000000
H     2.141000000    -1.105000000     7.017000000
O     4.616000000     0.660000000     8.970000000
H     4.985000000    -0.172000000     9.268000000
H     3.671000000     0.557000000     9.084000000
O     6.807000000    -4.194000000     0.567000000
H     6.081000000    -3.642000000     0.858000000
H     7.449000000    -4.138000000     1.274000000
O     3.040000000    -4.202000000     9.269000000
H     2.907000000    -3.359000000     8.836000000
H     3.119000000    -4.831000000     8.552000000
O     3.772000000    -4.756000000     4.646000000
H     3.665000000    -3.806000000     4.623000000
H     2.931000000    -5.084000000     4.967000000
O     4.987000000     0.800000000     2.777000000
H     5.271000000     0.109000000     2.179000000
H     4.475000000     0.343000000     3.444000000
O     5.340000000    -1.026000000     5.560000000
H     5.266000000    -1.779000000     4.973000000
H     4.440000000    -0.849000000     5.836000000
