218
-1454.14704
C     3.376000000     3.018000000    -2.302000000
H     2.734000000     3.895000000    -2.277000000
C     3.004000000     1.777000000    -2.807000000
C     3.898000000     0.715000000    -2.729000000
H     3.656000000    -0.302000000    -3.026000000
C     1.562000000     1.575000000    -3.367000000
O     0.964000000     2.810000000    -3.835000000
H     0.853000000     1.228000000    -2.601000000
O     1.587000000     0.566000000    -4.347000000
C     0.585000000    -0.362000000    -4.372000000
C     0.907000000    -1.662000000    -3.932000000
H     1.917000000    -1.896000000    -3.604000000
C    -0.049000000    -2.665000000    -3.786000000
O     0.372000000    -3.787000000    -3.221000000
C    -1.416000000    -2.289000000    -3.916000000
C    -2.551000000    -3.268000000    -3.721000000
H    -3.426000000    -2.947000000    -4.290000000
C    -3.011000000    -3.280000000    -2.273000000
C    -4.013000000    -2.361000000    -1.845000000
H    -4.555000000    -1.682000000    -2.498000000
H    -2.300000000    -4.276000000    -4.058000000
C    -1.796000000    -0.969000000    -4.359000000
H    -2.846000000    -0.731000000    -4.505000000
C    -0.785000000    -0.042000000    -4.629000000
C    -1.164000000     1.345000000    -5.119000000
H    -2.085000000     1.279000000    -5.701000000
H    -0.440000000     1.734000000    -5.837000000
C    -1.370000000     2.342000000    -3.987000000
C    -2.673000000     2.441000000    -3.468000000
H    -3.559000000     1.915000000    -3.813000000
C    -0.319000000     3.024000000    -3.430000000
C    -0.503000000     4.017000000    -2.439000000
H     0.337000000     4.621000000    -2.106000000
C    -1.785000000     4.162000000    -1.899000000
O    -1.957000000     4.841000000    -0.734000000
C    -1.710000000     3.986000000     0.412000000
C    -0.711000000     4.659000000     1.367000000
C    -0.858000000     4.421000000     2.736000000
H    -1.677000000     3.771000000     3.035000000
C     0.390000000     5.492000000     0.951000000
H     0.414000000     5.856000000    -0.073000000
O    -2.964000000     3.646000000     1.088000000
H    -1.288000000     3.028000000     0.074000000
C    -2.831000000     3.371000000    -2.366000000
C    -4.191000000     3.283000000    -1.662000000
H    -4.822000000     3.056000000    -2.524000000
H    -4.552000000     4.269000000    -1.362000000
C    -4.235000000     2.259000000    -0.449000000
C    -4.905000000     1.041000000    -0.654000000
H    -5.381000000     0.889000000    -1.619000000
C    -3.571000000     2.458000000     0.745000000
C    -3.632000000     1.476000000     1.724000000
H    -3.108000000     1.716000000     2.645000000
C    -4.205000000     0.253000000     1.502000000
O    -4.044000000    -0.701000000     2.506000000
C    -3.112000000    -1.735000000     2.266000000
C    -2.214000000    -2.013000000     3.429000000
C    -1.792000000    -0.888000000     4.119000000
H    -1.993000000     0.120000000     3.765000000
C    -1.829000000    -3.272000000     3.811000000
H    -2.170000000    -4.118000000     3.220000000
O    -3.788000000    -2.913000000     1.771000000
H    -2.394000000    -1.304000000     1.554000000
C    -4.790000000     0.041000000     0.248000000
C    -5.394000000    -1.367000000    -0.117000000
H    -6.138000000    -1.212000000    -0.901000000
H    -6.025000000    -1.718000000     0.702000000
C    -4.421000000    -2.348000000    -0.536000000
C    -3.693000000    -3.142000000     0.410000000
C    -2.731000000    -4.047000000    -0.012000000
H    -2.232000000    -4.634000000     0.754000000
C    -2.376000000    -4.060000000    -1.345000000
O    -1.224000000    -4.700000000    -1.719000000
C     0.025000000    -3.980000000    -1.848000000
H    -0.193000000    -2.965000000    -1.484000000
C     1.172000000    -4.493000000    -1.134000000
C     2.480000000    -4.281000000    -1.458000000
H     2.750000000    -3.625000000    -2.282000000
C     0.906000000    -5.354000000    -0.064000000
H    -0.088000000    -5.539000000     0.335000000
C     1.983000000    -5.892000000     0.662000000
O     1.899000000    -6.570000000     1.883000000
C     3.314000000    -5.627000000     0.353000000
H     4.094000000    -5.944000000     1.040000000
C     3.608000000    -4.825000000    -0.728000000
O     4.974000000    -4.591000000    -1.104000000
C     5.311000000    -3.623000000    -2.008000000
C     5.714000000    -2.360000000    -1.601000000
H     5.660000000    -2.133000000    -0.539000000
C     5.259000000    -3.985000000    -3.314000000
H     5.238000000    -5.017000000    -3.655000000
C     5.622000000    -3.067000000    -4.301000000
H     5.621000000    -3.313000000    -5.360000000
C     5.830000000    -1.786000000    -3.935000000
H     6.081000000    -1.067000000    -4.709000000
C     5.961000000    -1.388000000    -2.594000000
O     6.240000000    -0.094000000    -2.273000000
C     5.256000000     0.897000000    -2.308000000
C     5.617000000     2.181000000    -1.792000000
H     6.619000000     2.308000000    -1.390000000
C     4.669000000     3.202000000    -1.756000000
O     5.194000000     4.421000000    -1.374000000
C     4.354000000     5.504000000    -1.160000000
C     3.584000000     5.595000000    -0.048000000
H     3.530000000     4.830000000     0.722000000
C     4.593000000     6.715000000    -1.913000000
H     5.403000000     6.690000000    -2.639000000
C     4.075000000     7.899000000    -1.442000000
H     4.356000000     8.811000000    -1.963000000
C     3.165000000     7.912000000    -0.375000000
H     2.722000000     8.891000000    -0.215000000
C     2.828000000     6.737000000     0.304000000
O     2.301000000     6.828000000     1.534000000
C     1.259000000     6.042000000     1.912000000
C     0.986000000     5.799000000     3.289000000
H     1.687000000     6.190000000     4.023000000
C    -0.085000000     4.977000000     3.683000000
O    -0.177000000     4.684000000     5.051000000
C    -0.991000000     3.657000000     5.496000000
C    -0.486000000     2.371000000     5.341000000
H     0.554000000     2.198000000     5.076000000
C    -2.270000000     3.976000000     6.023000000
H    -2.513000000     5.031000000     6.117000000
C    -3.042000000     2.871000000     6.475000000
H    -4.040000000     3.092000000     6.843000000
C    -2.455000000     1.599000000     6.480000000
H    -2.931000000     0.710000000     6.885000000
C    -1.238000000     1.360000000     5.859000000
O    -0.690000000     0.127000000     5.864000000
C    -1.138000000    -0.987000000     5.294000000
C    -0.685000000    -2.255000000     5.673000000
H    -0.135000000    -2.311000000     6.609000000
C    -1.051000000    -3.408000000     4.983000000
O    -0.795000000    -4.717000000     5.417000000
C    -0.502000000    -5.749000000     4.533000000
C    -1.319000000    -6.863000000     4.369000000
H    -2.251000000    -6.956000000     4.921000000
C    -1.123000000    -7.785000000     3.378000000
H    -1.801000000    -8.628000000     3.277000000
C    -0.072000000    -7.636000000     2.543000000
H     0.066000000    -8.225000000     1.639000000
C     0.781000000    -6.553000000     2.667000000
C     0.621000000    -5.590000000     3.717000000
H     1.178000000    -4.659000000     3.784000000
C     2.731000000    -0.879000000     0.503000000
H     3.554000000    -1.584000000     0.421000000
C     1.487000000    -1.107000000    -0.045000000
H     1.321000000    -1.943000000    -0.719000000
C     0.441000000    -0.164000000     0.181000000
C    -0.938000000    -0.426000000    -0.451000000
H    -1.738000000     0.275000000    -0.205000000
H    -0.793000000    -0.446000000    -1.533000000
H    -1.296000000    -1.418000000    -0.168000000
C     0.711000000     1.025000000     0.834000000
H     0.010000000     1.764000000     1.213000000
C     1.960000000     1.260000000     1.351000000
H     2.176000000     2.163000000     1.916000000
C     2.972000000     0.277000000     1.285000000
C     4.249000000     0.447000000     2.091000000
O     4.401000000     1.381000000     2.800000000
O     5.067000000    -0.449000000     2.017000000
O     9.116000000     0.871000000     0.459000000
H     8.982000000    -0.044000000     0.212000000
H     8.273000000     1.148000000     0.819000000
O     9.618000000     0.379000000     3.936000000
H     8.674000000     0.504000000     3.835000000
H    10.009000000     1.000000000     3.321000000
O     2.960000000     4.086000000     6.218000000
H     3.637000000     4.212000000     6.882000000
H     2.297000000     4.746000000     6.424000000
O     3.778000000    -1.981000000     5.859000000
H     3.120000000    -1.612000000     5.270000000
H     3.276000000    -2.513000000     6.476000000
O     6.903000000     1.751000000     1.421000000
H     6.352000000     0.974000000     1.320000000
H     6.945000000     1.893000000     2.367000000
O     8.094000000    -3.245000000     3.868000000
H     8.445000000    -4.120000000     4.036000000
H     7.158000000    -3.385000000     3.725000000
O     3.436000000     1.612000000     5.462000000
H     3.173000000     2.516000000     5.636000000
H     3.441000000     1.545000000     4.507000000
O     7.839000000    -2.020000000     6.361000000
H     8.699000000    -1.902000000     6.763000000
H     8.027000000    -2.384000000     5.496000000
O     9.015000000    -1.755000000    -0.948000000
H     8.248000000    -1.852000000    -0.385000000
H     8.658000000    -1.721000000    -1.835000000
O     4.867000000     1.895000000     8.102000000
H     5.272000000     1.513000000     7.323000000
H     5.178000000     2.800000000     8.114000000
O     6.110000000    -4.184000000     1.552000000
H     5.548000000    -3.976000000     0.806000000
H     5.841000000    -3.569000000     2.234000000
O     5.399000000    -2.450000000     3.647000000
H     5.145000000    -1.657000000     3.175000000
H     5.036000000    -2.332000000     4.525000000
O     7.348000000     3.726000000     5.420000000
H     7.946000000     3.139000000     4.958000000
H     6.545000000     3.707000000     4.900000000
O     6.130000000     0.049000000     6.429000000
H     5.389000000    -0.531000000     6.604000000
H     6.883000000    -0.538000000     6.365000000
O     2.312000000     0.140000000     7.938000000
H     2.779000000     0.540000000     7.204000000
H     2.808000000    -0.656000000     8.132000000
O     7.332000000    -1.331000000     1.097000000
H     6.445000000    -1.175000000     1.422000000
H     7.773000000    -1.784000000     1.815000000
O     4.656000000     3.982000000     3.628000000
H     4.040000000     3.931000000     4.358000000
H     4.635000000     3.109000000     3.235000000
O     6.783000000     1.251000000     4.042000000
H     5.932000000     1.030000000     3.665000000
H     6.815000000     0.761000000     4.864000000
O     6.321000000     4.499000000     1.651000000
H     6.126000000     3.780000000     1.050000000
H     5.671000000     4.412000000     2.347000000
