218
-1476.76781
C     3.287000000     3.077000000    -2.281000000
H     2.525000000     3.798000000    -1.998000000
C     3.032000000     2.042000000    -3.162000000
C     4.048000000     1.179000000    -3.527000000
H     3.835000000     0.354000000    -4.202000000
C     1.555000000     1.750000000    -3.523000000
O     0.878000000     2.973000000    -3.985000000
H     1.166000000     1.182000000    -2.665000000
O     1.476000000     0.758000000    -4.592000000
C     0.527000000    -0.274000000    -4.522000000
C     1.018000000    -1.553000000    -4.127000000
H     2.098000000    -1.663000000    -4.083000000
C     0.029000000    -2.523000000    -3.806000000
O     0.497000000    -3.661000000    -3.269000000
C    -1.349000000    -2.262000000    -3.996000000
C    -2.370000000    -3.390000000    -3.756000000
H    -3.234000000    -3.320000000    -4.421000000
C    -2.858000000    -3.429000000    -2.317000000
C    -4.041000000    -2.791000000    -1.950000000
H    -4.631000000    -2.339000000    -2.744000000
H    -1.975000000    -4.404000000    -3.845000000
C    -1.699000000    -1.054000000    -4.563000000
H    -2.739000000    -0.848000000    -4.799000000
C    -0.852000000    -0.020000000    -4.651000000
C    -1.299000000     1.347000000    -5.113000000
H    -2.264000000     1.324000000    -5.624000000
H    -0.602000000     1.803000000    -5.820000000
C    -1.448000000     2.384000000    -4.030000000
C    -2.676000000     2.332000000    -3.313000000
H    -3.504000000     1.713000000    -3.649000000
C    -0.412000000     3.078000000    -3.531000000
C    -0.589000000     3.838000000    -2.397000000
H     0.305000000     4.281000000    -1.967000000
C    -1.836000000     3.914000000    -1.752000000
O    -1.956000000     4.448000000    -0.549000000
C    -1.748000000     3.668000000     0.636000000
C    -1.111000000     4.563000000     1.641000000
C    -1.310000000     4.337000000     3.032000000
H    -2.050000000     3.576000000     3.270000000
C    -0.075000000     5.393000000     1.215000000
H     0.106000000     5.443000000     0.144000000
O    -3.053000000     3.329000000     1.171000000
H    -1.149000000     2.753000000     0.519000000
C    -2.863000000     3.103000000    -2.181000000
C    -4.229000000     3.059000000    -1.547000000
H    -4.983000000     2.950000000    -2.330000000
H    -4.532000000     3.972000000    -1.030000000
C    -4.291000000     1.962000000    -0.505000000
C    -4.858000000     0.705000000    -0.821000000
H    -5.040000000     0.579000000    -1.886000000
C    -3.753000000     2.176000000     0.804000000
C    -3.958000000     1.218000000     1.767000000
H    -3.578000000     1.336000000     2.779000000
C    -4.637000000     0.066000000     1.490000000
O    -4.480000000    -0.869000000     2.505000000
C    -3.443000000    -1.888000000     2.372000000
C    -2.638000000    -2.066000000     3.669000000
C    -2.323000000    -0.984000000     4.558000000
H    -2.627000000     0.041000000     4.364000000
C    -2.003000000    -3.277000000     3.999000000
H    -2.080000000    -4.140000000     3.343000000
O    -3.779000000    -3.123000000     1.713000000
H    -2.686000000    -1.416000000     1.728000000
C    -4.984000000    -0.295000000     0.180000000
C    -5.489000000    -1.673000000    -0.245000000
H    -6.180000000    -1.548000000    -1.081000000
H    -6.040000000    -2.014000000     0.634000000
C    -4.404000000    -2.636000000    -0.606000000
C    -3.490000000    -3.196000000     0.321000000
C    -2.354000000    -3.925000000    -0.014000000
H    -1.757000000    -4.388000000     0.767000000
C    -2.078000000    -4.089000000    -1.384000000
O    -0.869000000    -4.680000000    -1.726000000
C     0.299000000    -3.802000000    -1.888000000
H     0.006000000    -2.802000000    -1.536000000
C     1.535000000    -4.281000000    -1.248000000
C     2.845000000    -3.935000000    -1.707000000
H     2.836000000    -3.345000000    -2.620000000
C     1.500000000    -4.838000000     0.016000000
H     0.514000000    -5.129000000     0.369000000
C     2.674000000    -5.113000000     0.792000000
O     2.630000000    -5.499000000     2.094000000
C     3.930000000    -4.762000000     0.301000000
H     4.832000000    -4.818000000     0.906000000
C     4.044000000    -4.139000000    -0.991000000
O     5.295000000    -3.886000000    -1.469000000
C     5.573000000    -3.086000000    -2.519000000
C     5.778000000    -1.711000000    -2.393000000
H     5.513000000    -1.174000000    -1.486000000
C     5.718000000    -3.695000000    -3.761000000
H     5.428000000    -4.739000000    -3.856000000
C     6.113000000    -2.922000000    -4.869000000
H     6.286000000    -3.477000000    -5.787000000
C     6.281000000    -1.517000000    -4.767000000
H     6.585000000    -0.917000000    -5.620000000
C     6.143000000    -0.927000000    -3.495000000
O     6.402000000     0.462000000    -3.379000000
C     5.380000000     1.336000000    -3.033000000
C     5.604000000     2.414000000    -2.199000000
H     6.604000000     2.534000000    -1.791000000
C     4.610000000     3.275000000    -1.828000000
O     5.038000000     4.254000000    -0.939000000
C     4.142000000     5.349000000    -0.743000000
C     3.325000000     5.411000000     0.388000000
H     3.313000000     4.597000000     1.108000000
C     4.105000000     6.293000000    -1.730000000
H     4.715000000     6.251000000    -2.629000000
C     3.300000000     7.395000000    -1.472000000
H     3.277000000     8.219000000    -2.181000000
C     2.521000000     7.493000000    -0.366000000
H     1.890000000     8.369000000    -0.233000000
C     2.548000000     6.499000000     0.602000000
O     1.810000000     6.729000000     1.799000000
C     0.679000000     6.006000000     2.190000000
C     0.460000000     5.722000000     3.529000000
H     1.196000000     6.030000000     4.267000000
C    -0.549000000     4.917000000     4.009000000
O    -0.575000000     4.477000000     5.314000000
C    -1.373000000     3.457000000     5.787000000
C    -0.853000000     2.190000000     6.001000000
H     0.213000000     2.058000000     5.837000000
C    -2.685000000     3.689000000     6.111000000
H    -3.203000000     4.625000000     5.920000000
C    -3.518000000     2.691000000     6.643000000
H    -4.548000000     2.925000000     6.896000000
C    -3.001000000     1.418000000     6.808000000
H    -3.672000000     0.615000000     7.103000000
C    -1.656000000     1.138000000     6.461000000
O    -1.145000000    -0.106000000     6.568000000
C    -1.527000000    -1.176000000     5.704000000
C    -1.053000000    -2.428000000     6.080000000
H    -0.502000000    -2.573000000     7.006000000
C    -1.258000000    -3.482000000     5.183000000
O    -0.602000000    -4.622000000     5.481000000
C    -0.060000000    -5.491000000     4.551000000
C    -0.392000000    -6.853000000     4.560000000
H    -1.152000000    -7.079000000     5.303000000
C     0.208000000    -7.748000000     3.641000000
H     0.009000000    -8.815000000     3.584000000
C     1.124000000    -7.226000000     2.723000000
H     1.632000000    -7.920000000     2.059000000
C     1.463000000    -5.872000000     2.742000000
C     0.915000000    -5.038000000     3.628000000
H     1.313000000    -4.030000000     3.710000000
C     2.664000000    -1.257000000     1.352000000
H     3.703000000    -1.531000000     1.184000000
C     1.754000000    -0.977000000     0.348000000
H     2.002000000    -0.787000000    -0.693000000
C     0.453000000    -0.586000000     0.642000000
C    -0.574000000    -0.196000000    -0.321000000
H    -1.531000000    -0.584000000     0.032000000
H    -0.714000000     0.887000000    -0.318000000
H    -0.334000000    -0.447000000    -1.357000000
C     0.032000000    -0.642000000     2.022000000
H    -0.889000000    -0.189000000     2.379000000
C     0.918000000    -1.256000000     2.948000000
H     0.585000000    -1.440000000     3.967000000
C     2.244000000    -1.542000000     2.654000000
C     3.103000000    -2.158000000     3.738000000
O     2.686000000    -2.425000000     4.852000000
O     4.353000000    -2.292000000     3.620000000
O     5.562000000     0.165000000     0.588000000
H     5.916000000     0.659000000     1.328000000
H     5.661000000    -0.752000000     0.842000000
O     8.506000000    -0.737000000     4.540000000
H     8.402000000    -0.134000000     3.804000000
H     8.373000000    -1.605000000     4.159000000
O     8.910000000    -3.573000000     4.520000000
H     8.964000000    -3.765000000     5.456000000
H     8.355000000    -4.268000000     4.164000000
O     8.543000000    -1.934000000     0.759000000
H     8.763000000    -2.792000000     0.396000000
H     7.796000000    -2.102000000     1.333000000
O     3.375000000     2.534000000     6.070000000
H     3.127000000     1.713000000     6.494000000
H     3.717000000     2.269000000     5.216000000
O     4.558000000    -6.109000000     4.143000000
H     4.516000000    -5.591000000     4.947000000
H     4.035000000    -5.615000000     3.512000000
O     1.902000000    -3.644000000     7.172000000
H     2.757000000    -3.766000000     7.584000000
H     2.091000000    -3.165000000     6.365000000
O     6.513000000     1.305000000     2.965000000
H     6.541000000     1.611000000     3.872000000
H     6.969000000     1.985000000     2.469000000
O     6.695000000    -4.974000000     7.539000000
H     6.239000000    -5.125000000     8.367000000
H     6.002000000    -4.731000000     6.925000000
O     0.652000000    -3.215000000     9.719000000
H     1.277000000    -3.406000000     9.019000000
H     0.437000000    -2.290000000     9.602000000
O     3.061000000    -0.463000000     6.654000000
H     4.002000000    -0.356000000     6.513000000
H     2.820000000    -1.209000000     6.104000000
O     1.403000000    -6.365000000     7.473000000
H     1.509000000    -5.471000000     7.148000000
H     0.476000000    -6.428000000     7.704000000
O     7.074000000    -5.115000000     3.469000000
H     7.305000000    -5.678000000     2.730000000
H     6.219000000    -5.435000000     3.756000000
O     4.801000000    -3.830000000     5.889000000
H     5.088000000    -3.215000000     6.564000000
H     4.292000000    -3.296000000     5.279000000
O     6.066000000    -0.119000000     8.000000000
H     6.574000000    -0.843000000     8.368000000
H     6.267000000    -0.136000000     7.065000000
O     6.597000000    -2.611000000     2.453000000
H     5.751000000    -2.510000000     2.890000000
H     6.987000000    -3.384000000     2.861000000
O     3.637000000     1.570000000     3.541000000
H     3.163000000     1.320000000     2.749000000
H     4.481000000     1.124000000     3.466000000
O     2.931000000     0.996000000     9.177000000
H     2.905000000     0.496000000     8.361000000
H     3.424000000     0.442000000     9.781000000
O     5.441000000    -0.513000000     5.262000000
H     5.088000000    -1.186000000     4.680000000
H     6.353000000    -0.414000000     4.989000000
