218
-1437.64432
C    -3.888000000    -1.782000000    -3.658000000
H    -4.217000000    -0.981000000    -4.315000000
C    -3.986000000    -1.680000000    -2.287000000
C    -3.631000000    -2.757000000    -1.504000000
H    -3.652000000    -2.698000000    -0.419000000
C    -4.020000000    -0.395000000    -1.500000000
O    -4.350000000     0.719000000    -2.418000000
H    -2.998000000    -0.122000000    -1.198000000
O    -4.960000000    -0.333000000    -0.389000000
C    -4.675000000     0.367000000     0.755000000
C    -4.103000000    -0.376000000     1.755000000
H    -3.951000000    -1.439000000     1.584000000
C    -3.597000000     0.268000000     2.844000000
O    -3.061000000    -0.550000000     3.871000000
C    -3.585000000     1.651000000     2.936000000
C    -2.917000000     2.344000000     4.115000000
H    -3.304000000     3.356000000     4.249000000
C    -1.373000000     2.454000000     3.879000000
C    -0.720000000     3.583000000     3.304000000
H    -1.258000000     4.426000000     2.878000000
H    -3.128000000     1.803000000     5.039000000
C    -4.053000000     2.417000000     1.880000000
H    -3.900000000     3.493000000     1.870000000
C    -4.578000000     1.790000000     0.754000000
C    -4.869000000     2.759000000    -0.401000000
H    -5.192000000     3.775000000    -0.162000000
H    -5.706000000     2.322000000    -0.950000000
C    -3.660000000     2.839000000    -1.341000000
C    -2.713000000     3.863000000    -1.256000000
H    -2.785000000     4.609000000    -0.469000000
C    -3.493000000     1.868000000    -2.302000000
C    -2.482000000     1.943000000    -3.249000000
H    -2.272000000     1.120000000    -3.926000000
C    -1.551000000     2.957000000    -3.121000000
O    -0.486000000     2.973000000    -3.905000000
C     0.707000000     2.481000000    -3.391000000
C     1.307000000     1.386000000    -4.204000000
C     2.591000000     0.938000000    -3.871000000
H     3.097000000     1.326000000    -2.991000000
C     0.569000000     0.679000000    -5.133000000
H    -0.442000000     0.988000000    -5.384000000
O     1.635000000     3.496000000    -3.052000000
H     0.448000000     1.993000000    -2.439000000
C    -1.664000000     3.971000000    -2.177000000
C    -0.601000000     5.076000000    -2.096000000
H    -1.106000000     5.995000000    -1.791000000
H    -0.242000000     5.337000000    -3.094000000
C     0.594000000     4.804000000    -1.179000000
C     0.508000000     5.106000000     0.161000000
H    -0.305000000     5.629000000     0.658000000
C     1.672000000     4.024000000    -1.746000000
C     2.664000000     3.615000000    -0.867000000
H     3.547000000     3.072000000    -1.196000000
C     2.618000000     3.987000000     0.517000000
O     3.516000000     3.384000000     1.310000000
C     3.124000000     2.148000000     2.048000000
C     4.315000000     1.199000000     1.982000000
C     5.155000000     0.995000000     0.910000000
H     4.980000000     1.529000000    -0.021000000
C     4.520000000     0.484000000     3.139000000
H     3.938000000     0.677000000     4.036000000
O     2.710000000     2.582000000     3.347000000
H     2.238000000     1.716000000     1.561000000
C     1.510000000     4.645000000     1.028000000
C     1.407000000     4.901000000     2.544000000
H     0.963000000     5.886000000     2.704000000
H     2.344000000     4.937000000     3.103000000
C     0.696000000     3.731000000     3.207000000
C     1.419000000     2.622000000     3.630000000
C     0.832000000     1.500000000     4.236000000
H     1.574000000     0.813000000     4.635000000
C    -0.538000000     1.431000000     4.393000000
O    -1.094000000     0.247000000     4.859000000
C    -1.626000000    -0.705000000     3.880000000
H    -1.249000000    -0.348000000     2.910000000
C    -1.128000000    -2.229000000     3.979000000
C    -1.974000000    -3.332000000     3.720000000
H    -2.922000000    -3.195000000     3.207000000
C     0.148000000    -2.510000000     4.468000000
H     0.782000000    -1.729000000     4.879000000
C     0.641000000    -3.791000000     4.461000000
O     1.934000000    -4.023000000     4.894000000
C    -0.228000000    -4.840000000     4.192000000
H     0.135000000    -5.851000000     4.030000000
C    -1.555000000    -4.593000000     3.871000000
O    -2.400000000    -5.602000000     3.578000000
C    -3.176000000    -5.626000000     2.476000000
C    -2.632000000    -5.473000000     1.173000000
H    -1.563000000    -5.314000000     1.056000000
C    -4.533000000    -5.812000000     2.633000000
H    -4.944000000    -5.950000000     3.630000000
C    -5.372000000    -5.783000000     1.537000000
H    -6.449000000    -5.929000000     1.559000000
C    -4.869000000    -5.471000000     0.293000000
H    -5.612000000    -5.316000000    -0.485000000
C    -3.488000000    -5.352000000     0.066000000
O    -3.038000000    -5.183000000    -1.191000000
C    -3.272000000    -4.045000000    -1.992000000
C    -3.087000000    -4.057000000    -3.378000000
H    -2.874000000    -5.038000000    -3.795000000
C    -3.482000000    -2.976000000    -4.210000000
O    -3.516000000    -3.025000000    -5.539000000
C    -2.866000000    -2.128000000    -6.339000000
C    -1.493000000    -2.132000000    -6.432000000
H    -0.993000000    -2.956000000    -5.930000000
C    -3.594000000    -1.129000000    -6.921000000
H    -4.674000000    -1.196000000    -6.817000000
C    -2.964000000    -0.034000000    -7.536000000
H    -3.536000000     0.743000000    -8.036000000
C    -1.647000000    -0.047000000    -7.582000000
H    -1.197000000     0.863000000    -7.969000000
C    -0.882000000    -1.024000000    -7.000000000
O     0.509000000    -0.921000000    -6.926000000
C     1.203000000    -0.279000000    -5.976000000
C     2.464000000    -0.762000000    -5.586000000
H     2.953000000    -1.541000000    -6.166000000
C     3.128000000    -0.131000000    -4.554000000
O     4.323000000    -0.710000000    -4.302000000
C     5.298000000    -0.122000000    -3.558000000
C     5.505000000    -0.526000000    -2.229000000
H     4.805000000    -1.232000000    -1.790000000
C     6.103000000     0.824000000    -4.180000000
H     5.997000000     1.118000000    -5.221000000
C     7.148000000     1.367000000    -3.475000000
H     7.778000000     2.085000000    -3.995000000
C     7.363000000     1.019000000    -2.084000000
H     8.218000000     1.424000000    -1.547000000
C     6.542000000     0.029000000    -1.498000000
O     6.761000000    -0.441000000    -0.234000000
C     6.186000000     0.026000000     0.971000000
C     6.369000000    -0.728000000     2.162000000
H     7.126000000    -1.501000000     2.272000000
C     5.460000000    -0.488000000     3.231000000
O     5.672000000    -1.106000000     4.416000000
C     4.615000000    -1.559000000     5.199000000
C     4.474000000    -1.197000000     6.551000000
H     5.057000000    -0.394000000     6.994000000
C     3.504000000    -1.841000000     7.365000000
H     3.408000000    -1.655000000     8.432000000
C     2.640000000    -2.719000000     6.824000000
H     1.907000000    -3.298000000     7.381000000
C     2.801000000    -3.110000000     5.470000000
C     3.804000000    -2.567000000     4.687000000
H     3.990000000    -2.887000000     3.665000000
C     0.598000000    -1.870000000    -2.669000000
H     0.244000000    -2.170000000    -3.652000000
C    -0.100000000    -0.780000000    -2.046000000
H    -0.869000000    -0.302000000    -2.647000000
C     0.366000000    -0.396000000    -0.776000000
C    -0.330000000     0.754000000     0.017000000
H     0.136000000     1.735000000    -0.099000000
H    -1.391000000     0.763000000    -0.240000000
H    -0.479000000     0.634000000     1.092000000
C     1.463000000    -0.969000000    -0.169000000
H     1.800000000    -0.702000000     0.830000000
C     2.169000000    -1.999000000    -0.861000000
H     2.929000000    -2.490000000    -0.258000000
C     1.690000000    -2.526000000    -2.046000000
C     2.473000000    -3.581000000    -2.749000000
O     3.428000000    -4.097000000    -2.252000000
O     2.077000000    -3.886000000    -3.880000000
O     0.214000000    -5.443000000    -4.676000000
H    -0.235000000    -5.603000000    -3.846000000
H     0.928000000    -4.848000000    -4.451000000
O     1.784000000    -9.771000000    -4.105000000
H     2.054000000    -9.415000000    -4.952000000
H     1.997000000    -9.081000000    -3.476000000
O     3.092000000    -8.665000000    -6.348000000
H     3.397000000    -9.444000000    -6.814000000
H     3.844000000    -8.074000000    -6.352000000
O     5.701000000    -4.155000000    -3.164000000
H     5.952000000    -3.383000000    -3.671000000
H     4.850000000    -3.929000000    -2.789000000
O     3.625000000    -4.165000000    -5.952000000
H     2.979000000    -4.226000000    -5.248000000
H     4.380000000    -3.739000000    -5.548000000
O     4.823000000    -6.200000000    -7.267000000
H     4.428000000    -5.667000000    -6.577000000
H     4.349000000    -5.954000000    -8.061000000
O     2.601000000    -6.728000000     1.873000000
H     2.827000000    -6.492000000     0.973000000
H     2.518000000    -7.681000000     1.857000000
O    -0.511000000    -6.382000000    -2.188000000
H    -1.101000000    -5.966000000    -1.559000000
H    -0.927000000    -7.222000000    -2.386000000
O     6.285000000    -7.405000000     0.727000000
H     5.432000000    -7.036000000     0.500000000
H     6.229000000    -7.576000000     1.667000000
O     7.293000000    -6.651000000    -3.942000000
H     6.853000000    -5.884000000    -3.576000000
H     6.690000000    -7.376000000    -3.776000000
O     3.141000000    -6.545000000    -3.258000000
H     3.541000000    -5.721000000    -2.980000000
H     2.272000000    -6.295000000    -3.572000000
O     5.336000000    -1.309000000    -7.889000000
H     5.241000000    -1.868000000    -7.118000000
H     5.875000000    -0.577000000    -7.589000000
O     5.337000000    -8.455000000    -3.909000000
H     4.629000000    -7.834000000    -3.736000000
H     4.985000000    -9.302000000    -3.635000000
O     1.454000000    -8.308000000    -0.798000000
H     0.862000000    -7.635000000    -1.135000000
H     0.978000000    -9.129000000    -0.924000000
O    -0.272000000    -5.974000000    -7.150000000
H    -0.830000000    -6.741000000    -7.023000000
H     0.049000000    -5.763000000    -6.273000000
O     3.751000000    -6.402000000    -0.472000000
H     3.502000000    -6.969000000    -1.201000000
H     3.836000000    -5.532000000    -0.863000000
O     6.459000000    -3.205000000    -5.978000000
H     7.163000000    -3.851000000    -6.028000000
H     6.865000000    -2.438000000    -5.573000000
O     8.010000000    -3.354000000    -1.874000000
H     8.454000000    -4.179000000    -1.677000000
H     7.079000000    -3.554000000    -1.778000000
O     1.803000000    -4.239000000    -8.074000000
H     1.211000000    -4.922000000    -7.760000000
H     2.333000000    -4.010000000    -7.310000000
