218
-1464.10354
C     4.041000000     3.089000000    -2.443000000
H     3.320000000     3.870000000    -2.669000000
C     3.668000000     1.822000000    -2.965000000
C     4.555000000     0.756000000    -2.841000000
H     4.189000000    -0.240000000    -3.075000000
C     2.331000000     1.502000000    -3.632000000
O     1.721000000     2.678000000    -4.196000000
H     1.684000000     1.257000000    -2.777000000
O     2.310000000     0.434000000    -4.574000000
C     1.314000000    -0.445000000    -4.364000000
C     1.674000000    -1.653000000    -3.738000000
H     2.664000000    -1.793000000    -3.312000000
C     0.691000000    -2.639000000    -3.565000000
O     1.023000000    -3.795000000    -2.875000000
C    -0.577000000    -2.480000000    -4.107000000
C    -1.643000000    -3.487000000    -3.920000000
H    -2.340000000    -3.413000000    -4.758000000
C    -2.340000000    -3.279000000    -2.613000000
C    -3.373000000    -2.394000000    -2.445000000
H    -3.736000000    -1.913000000    -3.350000000
H    -1.178000000    -4.471000000    -4.002000000
C    -0.997000000    -1.268000000    -4.704000000
H    -2.000000000    -1.012000000    -5.036000000
C     0.003000000    -0.273000000    -4.872000000
C    -0.320000000     1.099000000    -5.506000000
H    -1.179000000     0.981000000    -6.169000000
H     0.517000000     1.440000000    -6.118000000
C    -0.604000000     2.186000000    -4.450000000
C    -1.933000000     2.249000000    -3.989000000
H    -2.758000000     1.698000000    -4.433000000
C     0.400000000     2.934000000    -3.886000000
C     0.126000000     3.760000000    -2.819000000
H     0.807000000     4.430000000    -2.300000000
C    -1.215000000     3.840000000    -2.337000000
O    -1.464000000     4.606000000    -1.245000000
C    -1.806000000     3.996000000     0.022000000
C    -0.957000000     4.355000000     1.193000000
C    -1.527000000     4.025000000     2.421000000
H    -2.570000000     3.752000000     2.557000000
C     0.239000000     5.043000000     1.025000000
H     0.609000000     5.322000000     0.042000000
O    -3.192000000     3.837000000     0.263000000
H    -1.502000000     2.940000000    -0.014000000
C    -2.238000000     3.075000000    -2.904000000
C    -3.679000000     3.206000000    -2.456000000
H    -4.410000000     3.077000000    -3.257000000
H    -3.825000000     4.209000000    -2.052000000
C    -4.010000000     2.245000000    -1.365000000
C    -4.379000000     0.982000000    -1.695000000
H    -4.510000000     0.721000000    -2.742000000
C    -3.796000000     2.642000000    -0.011000000
C    -4.164000000     1.781000000     0.995000000
H    -4.107000000     2.112000000     2.029000000
C    -4.573000000     0.496000000     0.676000000
O    -4.696000000    -0.454000000     1.649000000
C    -3.604000000    -1.381000000     1.813000000
C    -3.272000000    -1.675000000     3.281000000
C    -3.472000000    -0.669000000     4.261000000
H    -3.972000000     0.272000000     4.043000000
C    -2.448000000    -2.720000000     3.649000000
H    -2.225000000    -3.456000000     2.881000000
O    -3.924000000    -2.626000000     1.256000000
H    -2.741000000    -0.852000000     1.382000000
C    -4.735000000     0.136000000    -0.660000000
C    -5.230000000    -1.244000000    -1.073000000
H    -5.712000000    -1.222000000    -2.053000000
H    -6.028000000    -1.680000000    -0.469000000
C    -4.064000000    -2.219000000    -1.199000000
C    -3.516000000    -2.811000000    -0.033000000
C    -2.422000000    -3.661000000    -0.208000000
H    -2.003000000    -4.171000000     0.655000000
C    -1.828000000    -3.803000000    -1.431000000
O    -0.664000000    -4.546000000    -1.458000000
C     0.555000000    -3.846000000    -1.543000000
H     0.501000000    -2.773000000    -1.305000000
C     1.573000000    -4.472000000    -0.598000000
C     2.959000000    -4.251000000    -0.850000000
H     3.292000000    -3.641000000    -1.685000000
C     1.214000000    -5.206000000     0.514000000
H     0.186000000    -5.487000000     0.725000000
C     2.172000000    -5.808000000     1.352000000
O     1.802000000    -6.567000000     2.492000000
C     3.507000000    -5.457000000     1.130000000
H     4.146000000    -5.733000000     1.964000000
C     3.920000000    -4.774000000    -0.014000000
O     5.273000000    -4.539000000    -0.245000000
C     5.765000000    -3.661000000    -1.236000000
C     5.887000000    -2.380000000    -0.824000000
H     5.713000000    -2.136000000     0.221000000
C     6.037000000    -4.144000000    -2.499000000
H     5.881000000    -5.184000000    -2.776000000
C     6.247000000    -3.243000000    -3.481000000
H     6.314000000    -3.540000000    -4.524000000
C     6.342000000    -1.904000000    -3.171000000
H     6.498000000    -1.101000000    -3.888000000
C     6.221000000    -1.489000000    -1.858000000
O     6.347000000    -0.147000000    -1.468000000
C     5.640000000     0.893000000    -1.999000000
C     5.973000000     2.108000000    -1.404000000
H     6.970000000     2.223000000    -0.986000000
C     5.196000000     3.219000000    -1.635000000
O     5.558000000     4.457000000    -1.158000000
C     4.805000000     5.442000000    -0.514000000
C     3.883000000     5.077000000     0.388000000
H     3.782000000     4.088000000     0.826000000
C     4.772000000     6.705000000    -1.057000000
H     5.398000000     6.994000000    -1.897000000
C     3.912000000     7.757000000    -0.574000000
H     3.856000000     8.821000000    -0.789000000
C     3.113000000     7.361000000     0.534000000
H     2.452000000     8.082000000     1.008000000
C     3.087000000     6.027000000     0.962000000
O     2.373000000     5.687000000     2.088000000
C     1.025000000     5.212000000     2.150000000
C     0.435000000     4.996000000     3.447000000
H     0.999000000     5.314000000     4.320000000
C    -0.794000000     4.384000000     3.578000000
O    -1.161000000     4.036000000     4.898000000
C    -2.286000000     3.360000000     5.349000000
C    -2.217000000     2.019000000     5.705000000
H    -1.293000000     1.508000000     5.450000000
C    -3.474000000     4.094000000     5.489000000
H    -3.531000000     5.147000000     5.226000000
C    -4.579000000     3.532000000     6.087000000
H    -5.433000000     4.180000000     6.260000000
C    -4.496000000     2.191000000     6.418000000
H    -5.299000000     1.709000000     6.969000000
C    -3.314000000     1.418000000     6.268000000
O    -3.321000000     0.087000000     6.573000000
C    -3.023000000    -0.901000000     5.572000000
C    -2.236000000    -1.980000000     5.957000000
H    -2.045000000    -2.191000000     7.006000000
C    -1.957000000    -2.889000000     4.930000000
O    -1.182000000    -4.020000000     5.229000000
C    -0.972000000    -5.113000000     4.450000000
C    -1.930000000    -6.079000000     4.220000000
H    -2.900000000    -6.010000000     4.706000000
C    -1.590000000    -7.198000000     3.436000000
H    -2.400000000    -7.881000000     3.193000000
C    -0.372000000    -7.273000000     2.807000000
H    -0.119000000    -8.143000000     2.207000000
C     0.577000000    -6.336000000     3.038000000
C     0.307000000    -5.265000000     3.895000000
H     1.080000000    -4.505000000     3.964000000
C     2.641000000     0.409000000     0.255000000
H     3.617000000     0.257000000    -0.198000000
C     1.494000000     0.094000000    -0.466000000
H     1.624000000    -0.478000000    -1.381000000
C     0.257000000     0.431000000     0.063000000
C    -0.922000000     0.094000000    -0.831000000
H    -1.918000000     0.269000000    -0.416000000
H    -0.775000000     0.542000000    -1.815000000
H    -0.919000000    -0.975000000    -1.057000000
C     0.120000000     1.045000000     1.261000000
H    -0.911000000     1.284000000     1.510000000
C     1.249000000     1.433000000     1.998000000
H     1.034000000     1.951000000     2.930000000
C     2.521000000     1.134000000     1.481000000
C     3.665000000     1.743000000     2.224000000
O     3.538000000     2.232000000     3.355000000
O     4.744000000     1.716000000     1.703000000
O     5.279000000     2.861000000     7.806000000
H     5.583000000     2.523000000     6.963000000
H     4.711000000     2.171000000     8.149000000
O     5.152000000     6.939000000     6.431000000
H     4.641000000     6.842000000     7.234000000
H     5.121000000     6.074000000     6.022000000
O     6.901000000     0.129000000     1.479000000
H     7.300000000    -0.005000000     0.619000000
H     6.190000000     0.748000000     1.319000000
O     7.234000000    -1.901000000     3.309000000
H     7.558000000    -2.442000000     2.589000000
H     7.045000000    -1.054000000     2.907000000
O     1.214000000    -1.260000000     4.782000000
H     1.450000000    -1.435000000     3.871000000
H     1.340000000    -2.098000000     5.227000000
O     8.062000000     3.213000000     6.018000000
H     8.375000000     3.538000000     5.173000000
H     7.730000000     3.991000000     6.465000000
O     2.358000000     3.065000000     5.495000000
H     2.846000000     2.735000000     4.741000000
H     1.995000000     2.281000000     5.906000000
O     9.510000000     2.756000000    -0.295000000
H    10.453000000     2.813000000    -0.453000000
H     9.387000000     1.898000000     0.112000000
O     8.657000000     3.885000000     3.213000000
H     7.815000000     3.789000000     2.767000000
H     8.818000000     4.828000000     3.218000000
O     4.418000000     0.008000000     7.220000000
H     3.728000000     0.489000000     6.763000000
H     5.177000000     0.071000000     6.640000000
O     1.173000000     4.466000000     7.243000000
H     0.742000000     3.791000000     7.768000000
H     1.773000000     3.982000000     6.677000000
O     3.772000000    -3.563000000     4.792000000
H     4.027000000    -2.660000000     4.604000000
H     3.201000000    -3.496000000     5.557000000
O     1.475000000     0.775000000     6.618000000
H     1.298000000     0.162000000     5.905000000
H     1.212000000     0.306000000     7.409000000
O     5.516000000     1.822000000     5.332000000
H     6.335000000     2.148000000     4.958000000
H     4.890000000     1.860000000     4.609000000
O     6.052000000     7.521000000     3.603000000
H     6.016000000     7.777000000     4.525000000
H     5.571000000     6.694000000     3.566000000
O     4.588000000    -1.162000000     3.504000000
H     5.511000000    -1.366000000     3.655000000
H     4.519000000    -0.223000000     3.677000000
O     6.377000000     3.853000000     2.015000000
H     5.969000000     3.006000000     1.838000000
H     5.812000000     4.488000000     1.575000000
O     8.451000000     1.111000000     3.691000000
H     8.075000000     0.765000000     2.882000000
H     8.416000000     2.061000000     3.584000000
O     4.665000000     5.015000000     4.341000000
H     4.534000000     4.440000000     3.587000000
H     3.990000000     4.749000000     4.966000000
