218
-1462.34459
C     3.814000000     3.069000000    -1.956000000
H     2.937000000     3.702000000    -1.850000000
C     3.643000000     1.927000000    -2.795000000
C     4.618000000     0.920000000    -2.821000000
H     4.644000000     0.022000000    -3.434000000
C     2.266000000     1.639000000    -3.328000000
O     1.707000000     2.823000000    -3.977000000
H     1.551000000     1.354000000    -2.543000000
O     2.317000000     0.580000000    -4.272000000
C     1.347000000    -0.303000000    -4.295000000
C     1.650000000    -1.519000000    -3.674000000
H     2.675000000    -1.703000000    -3.363000000
C     0.717000000    -2.499000000    -3.645000000
O     1.026000000    -3.616000000    -2.908000000
C    -0.496000000    -2.339000000    -4.258000000
C    -1.609000000    -3.389000000    -4.124000000
H    -2.273000000    -3.109000000    -4.945000000
C    -2.273000000    -3.248000000    -2.743000000
C    -3.378000000    -2.411000000    -2.522000000
H    -3.649000000    -1.730000000    -3.325000000
H    -1.292000000    -4.408000000    -4.355000000
C    -0.715000000    -1.183000000    -5.015000000
H    -1.682000000    -1.045000000    -5.491000000
C     0.140000000    -0.083000000    -4.961000000
C    -0.318000000     1.239000000    -5.537000000
H    -1.227000000     1.130000000    -6.133000000
H     0.507000000     1.564000000    -6.174000000
C    -0.605000000     2.252000000    -4.386000000
C    -1.949000000     2.445000000    -3.973000000
H    -2.726000000     1.887000000    -4.488000000
C     0.375000000     3.016000000    -3.720000000
C     0.007000000     3.812000000    -2.639000000
H     0.802000000     4.340000000    -2.119000000
C    -1.354000000     3.936000000    -2.246000000
O    -1.658000000     4.768000000    -1.215000000
C    -1.723000000     3.924000000    -0.032000000
C    -0.994000000     4.510000000     1.170000000
C    -1.413000000     4.039000000     2.391000000
H    -2.255000000     3.355000000     2.463000000
C     0.108000000     5.358000000     1.059000000
H     0.442000000     5.592000000     0.051000000
O    -3.109000000     3.651000000     0.293000000
H    -1.266000000     2.941000000    -0.222000000
C    -2.349000000     3.278000000    -2.973000000
C    -3.798000000     3.304000000    -2.490000000
H    -4.510000000     3.141000000    -3.302000000
H    -4.048000000     4.287000000    -2.085000000
C    -3.940000000     2.213000000    -1.486000000
C    -4.391000000     0.926000000    -1.788000000
H    -4.596000000     0.764000000    -2.843000000
C    -3.623000000     2.467000000    -0.115000000
C    -3.817000000     1.444000000     0.876000000
H    -3.635000000     1.804000000     1.885000000
C    -4.303000000     0.203000000     0.559000000
O    -4.444000000    -0.722000000     1.549000000
C    -3.547000000    -1.825000000     1.688000000
C    -3.299000000    -2.003000000     3.193000000
C    -3.408000000    -0.971000000     4.146000000
H    -3.882000000    -0.028000000     3.886000000
C    -2.596000000    -3.120000000     3.595000000
H    -2.596000000    -3.945000000     2.888000000
O    -4.137000000    -2.936000000     0.960000000
H    -2.625000000    -1.581000000     1.140000000
C    -4.669000000    -0.030000000    -0.806000000
C    -5.264000000    -1.372000000    -1.201000000
H    -5.846000000    -1.314000000    -2.123000000
H    -5.941000000    -1.651000000    -0.391000000
C    -4.072000000    -2.296000000    -1.316000000
C    -3.674000000    -3.089000000    -0.280000000
C    -2.515000000    -3.900000000    -0.367000000
H    -2.152000000    -4.399000000     0.528000000
C    -1.877000000    -3.963000000    -1.603000000
O    -0.627000000    -4.630000000    -1.661000000
C     0.436000000    -3.730000000    -1.604000000
H     0.142000000    -2.799000000    -1.097000000
C     1.389000000    -4.220000000    -0.482000000
C     2.740000000    -3.757000000    -0.578000000
H     2.942000000    -3.014000000    -1.346000000
C     1.019000000    -5.178000000     0.511000000
H     0.001000000    -5.553000000     0.566000000
C     2.044000000    -5.626000000     1.419000000
O     1.788000000    -6.517000000     2.414000000
C     3.320000000    -5.085000000     1.359000000
H     4.070000000    -5.347000000     2.101000000
C     3.692000000    -4.195000000     0.363000000
O     5.010000000    -3.699000000     0.343000000
C     5.545000000    -3.179000000    -0.858000000
C     5.883000000    -1.802000000    -0.833000000
H     5.668000000    -1.148000000     0.009000000
C     5.883000000    -3.925000000    -1.990000000
H     5.903000000    -5.009000000    -1.909000000
C     6.276000000    -3.318000000    -3.164000000
H     6.410000000    -3.976000000    -4.019000000
C     6.555000000    -1.958000000    -3.143000000
H     6.994000000    -1.417000000    -3.977000000
C     6.435000000    -1.224000000    -1.937000000
O     6.778000000     0.103000000    -1.970000000
C     5.711000000     1.072000000    -2.046000000
C     5.944000000     2.195000000    -1.268000000
H     6.910000000     2.242000000    -0.773000000
C     4.988000000     3.160000000    -1.172000000
O     5.255000000     4.246000000    -0.414000000
C     4.503000000     5.335000000    -0.213000000
C     3.487000000     5.285000000     0.757000000
H     3.250000000     4.394000000     1.333000000
C     4.793000000     6.534000000    -0.959000000
H     5.610000000     6.529000000    -1.676000000
C     4.064000000     7.676000000    -0.662000000
H     4.264000000     8.592000000    -1.211000000
C     3.059000000     7.608000000     0.325000000
H     2.419000000     8.447000000     0.586000000
C     2.838000000     6.473000000     1.124000000
O     1.875000000     6.624000000     2.071000000
C     0.780000000     5.776000000     2.201000000
C     0.395000000     5.330000000     3.474000000
H     0.973000000     5.438000000     4.388000000
C    -0.707000000     4.460000000     3.506000000
O    -0.833000000     4.016000000     4.744000000
C    -1.965000000     3.375000000     5.290000000
C    -1.815000000     2.033000000     5.547000000
H    -0.919000000     1.439000000     5.383000000
C    -3.161000000     4.072000000     5.550000000
H    -3.304000000     5.141000000     5.417000000
C    -4.194000000     3.317000000     6.039000000
H    -5.127000000     3.774000000     6.356000000
C    -4.026000000     2.003000000     6.430000000
H    -4.873000000     1.488000000     6.876000000
C    -2.893000000     1.318000000     6.151000000
O    -2.870000000    -0.012000000     6.390000000
C    -2.888000000    -1.110000000     5.483000000
C    -2.389000000    -2.372000000     5.805000000
H    -2.059000000    -2.544000000     6.826000000
C    -2.176000000    -3.346000000     4.863000000
O    -1.664000000    -4.567000000     5.210000000
C    -1.203000000    -5.589000000     4.391000000
C    -2.096000000    -6.571000000     3.982000000
H    -3.158000000    -6.606000000     4.214000000
C    -1.653000000    -7.509000000     3.086000000
H    -2.346000000    -8.297000000     2.803000000
C    -0.371000000    -7.487000000     2.576000000
H    -0.055000000    -8.204000000     1.822000000
C     0.562000000    -6.521000000     3.039000000
C     0.153000000    -5.592000000     3.955000000
H     0.822000000    -4.786000000     4.247000000
C     2.994000000     0.311000000     0.832000000
H     3.949000000    -0.178000000     0.656000000
C     1.890000000    -0.144000000     0.076000000
H     2.045000000    -1.061000000    -0.486000000
C     0.651000000     0.378000000     0.335000000
C    -0.520000000    -0.174000000    -0.234000000
H    -0.445000000    -0.275000000    -1.319000000
H    -0.855000000    -1.134000000     0.163000000
H    -1.326000000     0.507000000     0.047000000
C     0.473000000     1.390000000     1.290000000
H    -0.535000000     1.768000000     1.436000000
C     1.582000000     1.944000000     1.925000000
H     1.412000000     2.823000000     2.540000000
C     2.863000000     1.378000000     1.729000000
C     4.030000000     1.914000000     2.487000000
O     3.891000000     2.824000000     3.264000000
O     5.115000000     1.484000000     2.271000000
O     9.011000000    -0.184000000     0.524000000
H     9.522000000     0.091000000    -0.238000000
H     8.751000000    -1.083000000     0.326000000
O    10.818000000     2.960000000     3.083000000
H    10.846000000     3.815000000     3.512000000
H     9.887000000     2.744000000     3.039000000
O     3.507000000     5.332000000     6.971000000
H     3.815000000     5.416000000     6.069000000
H     4.090000000     4.682000000     7.364000000
O     0.690000000     1.077000000     8.082000000
H     0.667000000     0.777000000     7.174000000
H     0.007000000     0.569000000     8.520000000
O     7.540000000     0.772000000     2.623000000
H     7.779000000     0.580000000     1.716000000
H     6.583000000     0.793000000     2.618000000
O     7.297000000    -1.486000000     4.285000000
H     7.546000000    -0.748000000     3.728000000
H     6.463000000    -1.222000000     4.673000000
O     1.707000000    -1.457000000     3.076000000
H     2.468000000    -2.034000000     3.018000000
H     1.808000000    -0.851000000     2.342000000
O     5.394000000     4.216000000     8.585000000
H     5.693000000     3.766000000     7.795000000
H     4.583000000     3.768000000     8.824000000
O     2.412000000     2.177000000     5.489000000
H     2.953000000     2.481000000     4.760000000
H     1.777000000     1.586000000     5.085000000
O     7.699000000     5.325000000     0.312000000
H     8.342000000     4.664000000     0.055000000
H     8.188000000     5.928000000     0.872000000
O     8.832000000     6.505000000     2.844000000
H     7.900000000     6.308000000     2.933000000
H     9.239000000     6.088000000     3.604000000
O     5.852000000     0.555000000     8.548000000
H     5.502000000    -0.314000000     8.351000000
H     5.183000000     1.161000000     8.227000000
O     1.075000000    -0.304000000     5.609000000
H     1.233000000    -0.710000000     4.757000000
H     0.581000000    -0.961000000     6.099000000
O     6.080000000     3.324000000     6.294000000
H     6.797000000     3.187000000     5.674000000
H     5.323000000     2.908000000     5.881000000
O     3.549000000     2.057000000     8.015000000
H     2.820000000     1.602000000     8.438000000
H     3.271000000     2.160000000     7.105000000
O     4.798000000    -0.311000000     5.019000000
H     4.589000000     0.519000000     4.592000000
H     3.953000000    -0.646000000     5.319000000
O     6.248000000     4.439000000     2.584000000
H     5.854000000     3.590000000     2.383000000
H     6.498000000     4.794000000     1.731000000
O     7.732000000     2.910000000     4.284000000
H     7.738000000     2.094000000     3.784000000
H     7.456000000     3.576000000     3.654000000
O     4.208000000     5.011000000     4.398000000
H     5.154000000     4.994000000     4.248000000
H     3.864000000     4.317000000     3.834000000
