218
-1458.70466
C     3.254000000     2.923000000    -3.455000000
H     2.645000000     3.806000000    -3.631000000
C     2.774000000     1.575000000    -3.537000000
C     3.727000000     0.566000000    -3.367000000
H     3.337000000    -0.448000000    -3.395000000
C     1.334000000     1.169000000    -3.909000000
O     0.721000000     2.346000000    -4.481000000
H     0.846000000     0.744000000    -3.019000000
O     1.232000000     0.138000000    -4.888000000
C     0.207000000    -0.723000000    -4.827000000
C     0.577000000    -1.909000000    -4.308000000
H     1.574000000    -2.277000000    -4.081000000
C    -0.429000000    -2.801000000    -3.897000000
O     0.070000000    -3.910000000    -3.213000000
C    -1.791000000    -2.481000000    -4.100000000
C    -2.882000000    -3.447000000    -3.590000000
H    -3.706000000    -3.346000000    -4.299000000
C    -3.257000000    -3.231000000    -2.150000000
C    -4.164000000    -2.238000000    -1.699000000
H    -4.765000000    -1.690000000    -2.421000000
H    -2.591000000    -4.492000000    -3.713000000
C    -2.125000000    -1.310000000    -4.681000000
H    -3.148000000    -1.150000000    -5.012000000
C    -1.162000000    -0.350000000    -4.910000000
C    -1.683000000     1.011000000    -5.356000000
H    -2.684000000     0.806000000    -5.742000000
H    -1.014000000     1.510000000    -6.060000000
C    -1.714000000     1.969000000    -4.185000000
C    -2.885000000     2.338000000    -3.507000000
H    -3.845000000     1.932000000    -3.813000000
C    -0.504000000     2.570000000    -3.870000000
C    -0.379000000     3.458000000    -2.803000000
H     0.601000000     3.863000000    -2.565000000
C    -1.555000000     3.627000000    -2.001000000
O    -1.391000000     4.440000000    -0.863000000
C    -1.392000000     3.830000000     0.422000000
C    -0.395000000     4.417000000     1.380000000
C    -0.648000000     4.310000000     2.749000000
H    -1.525000000     3.828000000     3.171000000
C     0.836000000     4.835000000     0.949000000
H     0.939000000     4.978000000    -0.124000000
O    -2.756000000     3.790000000     0.982000000
H    -1.020000000     2.795000000     0.398000000
C    -2.792000000     3.168000000    -2.416000000
C    -3.992000000     3.471000000    -1.520000000
H    -4.915000000     3.396000000    -2.100000000
H    -3.920000000     4.466000000    -1.076000000
C    -4.175000000     2.414000000    -0.408000000
C    -4.842000000     1.190000000    -0.594000000
H    -5.198000000     0.895000000    -1.578000000
C    -3.559000000     2.697000000     0.804000000
C    -3.665000000     1.716000000     1.803000000
H    -3.145000000     1.974000000     2.722000000
C    -4.397000000     0.572000000     1.632000000
O    -4.284000000    -0.373000000     2.664000000
C    -3.284000000    -1.345000000     2.481000000
C    -2.505000000    -1.518000000     3.787000000
C    -2.241000000    -0.438000000     4.654000000
H    -2.461000000     0.579000000     4.340000000
C    -1.908000000    -2.741000000     4.054000000
H    -2.119000000    -3.560000000     3.371000000
O    -3.751000000    -2.668000000     2.004000000
H    -2.512000000    -0.953000000     1.803000000
C    -4.979000000     0.283000000     0.403000000
C    -5.504000000    -1.115000000     0.119000000
H    -6.300000000    -1.088000000    -0.628000000
H    -5.996000000    -1.467000000     1.028000000
C    -4.393000000    -2.069000000    -0.336000000
C    -3.661000000    -2.813000000     0.635000000
C    -2.723000000    -3.755000000     0.181000000
H    -2.198000000    -4.274000000     0.978000000
C    -2.439000000    -3.832000000    -1.144000000
O    -1.330000000    -4.545000000    -1.502000000
C    -0.088000000    -3.902000000    -1.754000000
H    -0.225000000    -2.829000000    -1.551000000
C     1.124000000    -4.486000000    -1.087000000
C     2.441000000    -4.453000000    -1.674000000
H     2.572000000    -4.114000000    -2.699000000
C     1.049000000    -4.919000000     0.251000000
H     0.062000000    -4.944000000     0.705000000
C     2.187000000    -5.324000000     0.969000000
O     2.149000000    -5.787000000     2.256000000
C     3.391000000    -5.532000000     0.247000000
H     4.242000000    -5.886000000     0.824000000
C     3.595000000    -4.918000000    -1.005000000
O     4.842000000    -4.917000000    -1.622000000
C     5.376000000    -3.849000000    -2.392000000
C     5.170000000    -2.572000000    -2.061000000
H     4.425000000    -2.376000000    -1.295000000
C     6.075000000    -4.157000000    -3.538000000
H     6.184000000    -5.186000000    -3.870000000
C     6.624000000    -3.129000000    -4.254000000
H     7.106000000    -3.516000000    -5.148000000
C     6.513000000    -1.798000000    -3.886000000
H     6.998000000    -1.035000000    -4.491000000
C     5.753000000    -1.479000000    -2.759000000
O     5.729000000    -0.156000000    -2.334000000
C     4.971000000     0.858000000    -2.859000000
C     5.298000000     2.171000000    -2.645000000
H     6.245000000     2.397000000    -2.162000000
C     4.490000000     3.237000000    -2.948000000
O     4.888000000     4.524000000    -2.781000000
C     4.285000000     5.419000000    -1.862000000
C     3.675000000     5.002000000    -0.641000000
H     3.567000000     3.943000000    -0.420000000
C     4.397000000     6.766000000    -2.132000000
H     4.913000000     7.149000000    -3.009000000
C     4.039000000     7.751000000    -1.116000000
H     4.173000000     8.794000000    -1.392000000
C     3.646000000     7.326000000     0.097000000
H     3.398000000     8.053000000     0.867000000
C     3.405000000     5.963000000     0.318000000
O     3.026000000     5.585000000     1.602000000
C     1.821000000     5.186000000     1.946000000
C     1.619000000     5.072000000     3.286000000
H     2.349000000     5.443000000     4.001000000
C     0.320000000     4.668000000     3.651000000
O    -0.044000000     4.633000000     4.981000000
C    -0.921000000     3.821000000     5.644000000
C    -0.652000000     2.421000000     5.693000000
H     0.099000000     1.927000000     5.082000000
C    -1.896000000     4.395000000     6.466000000
H    -2.092000000     5.462000000     6.404000000
C    -2.730000000     3.554000000     7.189000000
H    -3.560000000     3.849000000     7.824000000
C    -2.440000000     2.181000000     7.296000000
H    -2.990000000     1.551000000     7.990000000
C    -1.346000000     1.644000000     6.609000000
O    -1.050000000     0.301000000     6.676000000
C    -1.526000000    -0.640000000     5.798000000
C    -1.106000000    -1.913000000     6.084000000
H    -0.623000000    -1.931000000     7.058000000
C    -1.221000000    -3.004000000     5.266000000
O    -1.002000000    -4.315000000     5.564000000
C    -0.613000000    -5.224000000     4.610000000
C    -1.314000000    -6.392000000     4.511000000
H    -2.110000000    -6.540000000     5.237000000
C    -0.872000000    -7.410000000     3.669000000
H    -1.505000000    -8.293000000     3.624000000
C     0.294000000    -7.184000000     2.946000000
H     0.655000000    -8.023000000     2.356000000
C     0.993000000    -5.969000000     3.023000000
C     0.595000000    -4.989000000     3.968000000
H     1.121000000    -4.038000000     4.006000000
C     2.681000000     0.357000000    -0.077000000
H     3.645000000     0.138000000    -0.529000000
C     1.493000000    -0.105000000    -0.663000000
H     1.545000000    -0.738000000    -1.546000000
C     0.261000000     0.198000000    -0.034000000
C    -1.186000000    -0.180000000    -0.537000000
H    -1.399000000    -1.213000000    -0.254000000
H    -1.983000000     0.446000000    -0.131000000
H    -1.253000000    -0.146000000    -1.626000000
C     0.316000000     0.804000000     1.257000000
H    -0.553000000     0.806000000     1.910000000
C     1.552000000     1.131000000     1.853000000
H     1.423000000     1.635000000     2.807000000
C     2.688000000     1.078000000     1.069000000
C     3.982000000     1.525000000     1.643000000
O     4.039000000     2.002000000     2.749000000
O     5.046000000     1.377000000     0.947000000
O     8.221000000     2.387000000     4.216000000
H     9.006000000     2.926000000     4.121000000
H     7.772000000     2.466000000     3.374000000
O     8.195000000    -0.186000000    -0.949000000
H     8.411000000     0.650000000    -1.363000000
H     7.401000000    -0.476000000    -1.397000000
O     7.124000000     4.628000000     5.189000000
H     6.497000000     4.765000000     4.478000000
H     7.544000000     3.794000000     4.981000000
O     6.050000000    -1.104000000     0.701000000
H     6.901000000    -0.744000000     0.451000000
H     5.494000000    -0.336000000     0.832000000
O     3.851000000    -1.663000000     5.405000000
H     3.100000000    -1.944000000     5.929000000
H     3.748000000    -0.715000000     5.327000000
O     3.638000000     1.397000000     5.492000000
H     3.892000000     1.523000000     4.577000000
H     4.425000000     1.618000000     5.991000000
O     9.179000000     0.686000000     1.549000000
H     9.061000000     0.372000000     0.652000000
H     8.555000000     1.407000000     1.634000000
O     2.538000000     8.284000000     3.227000000
H     2.505000000     7.333000000     3.339000000
H     1.628000000     8.537000000     3.070000000
O     7.304000000    -2.448000000     4.285000000
H     7.025000000    -2.983000000     3.542000000
H     6.955000000    -1.577000000     4.098000000
O     2.003000000     2.406000000     7.490000000
H     2.456000000     1.980000000     6.762000000
H     1.637000000     1.684000000     8.000000000
O     4.162000000    -3.681000000     3.420000000
H     4.115000000    -2.899000000     3.970000000
H     5.033000000    -3.643000000     3.024000000
O     7.680000000     1.255000000     6.829000000
H     7.603000000     1.660000000     5.965000000
H     6.811000000     1.355000000     7.218000000
O     6.476000000     0.077000000     3.571000000
H     5.647000000     0.410000000     3.228000000
H     7.119000000     0.745000000     3.335000000
O     2.958000000     4.971000000     6.552000000
H     2.580000000     4.123000000     6.316000000
H     3.523000000     4.781000000     7.301000000
O     5.234000000     2.000000000     7.511000000
H     5.124000000     2.946000000     7.601000000
H     4.719000000     1.629000000     8.227000000
O     6.552000000     5.557000000     0.411000000
H     6.083000000     6.155000000     0.993000000
H     5.949000000     5.411000000    -0.318000000
O     6.474000000    -3.402000000     2.003000000
H     6.636000000    -3.921000000     1.216000000
H     6.251000000    -2.531000000     1.675000000
O     7.202000000     2.617000000     1.504000000
H     6.515000000     2.031000000     1.185000000
H     6.977000000     3.472000000     1.138000000
O     5.017000000     4.316000000     3.526000000
H     4.247000000     4.624000000     3.047000000
H     4.974000000     3.362000000     3.459000000
