218
-1472.93264
C     3.540000000     2.888000000    -1.835000000
H     2.669000000     3.529000000    -1.722000000
C     3.313000000     1.768000000    -2.688000000
C     4.384000000     0.987000000    -2.857000000
H     4.350000000     0.164000000    -3.566000000
C     2.005000000     1.468000000    -3.389000000
O     1.438000000     2.656000000    -3.893000000
H     1.433000000     0.966000000    -2.595000000
O     2.186000000     0.500000000    -4.493000000
C     1.141000000    -0.459000000    -4.641000000
C     1.423000000    -1.708000000    -4.043000000
H     2.453000000    -1.965000000    -3.811000000
C     0.481000000    -2.744000000    -3.970000000
O     0.861000000    -3.872000000    -3.229000000
C    -0.810000000    -2.498000000    -4.369000000
C    -1.908000000    -3.527000000    -4.014000000
H    -2.782000000    -3.432000000    -4.661000000
C    -2.466000000    -3.428000000    -2.573000000
C    -3.596000000    -2.630000000    -2.382000000
H    -4.083000000    -2.178000000    -3.243000000
H    -1.400000000    -4.478000000    -4.191000000
C    -1.185000000    -1.265000000    -4.885000000
H    -2.197000000    -1.156000000    -5.268000000
C    -0.173000000    -0.245000000    -4.955000000
C    -0.587000000     1.174000000    -5.356000000
H    -1.435000000     1.037000000    -6.031000000
H     0.190000000     1.453000000    -6.071000000
C    -0.864000000     2.065000000    -4.189000000
C    -2.223000000     2.240000000    -3.875000000
H    -2.993000000     1.626000000    -4.336000000
C     0.111000000     2.847000000    -3.535000000
C    -0.223000000     3.696000000    -2.471000000
H     0.512000000     4.243000000    -1.886000000
C    -1.598000000     3.866000000    -2.175000000
O    -1.896000000     4.536000000    -0.953000000
C    -1.978000000     3.775000000     0.246000000
C    -1.257000000     4.359000000     1.433000000
C    -1.558000000     4.092000000     2.753000000
H    -2.331000000     3.354000000     2.951000000
C    -0.204000000     5.283000000     1.162000000
H     0.073000000     5.549000000     0.145000000
O    -3.346000000     3.666000000     0.470000000
H    -1.575000000     2.779000000     0.010000000
C    -2.583000000     3.092000000    -2.806000000
C    -3.988000000     3.163000000    -2.343000000
H    -4.643000000     2.986000000    -3.199000000
H    -4.331000000     4.151000000    -2.030000000
C    -4.296000000     2.149000000    -1.179000000
C    -4.887000000     0.892000000    -1.403000000
H    -5.218000000     0.706000000    -2.422000000
C    -3.954000000     2.473000000     0.179000000
C    -4.174000000     1.508000000     1.154000000
H    -3.854000000     1.553000000     2.192000000
C    -4.731000000     0.266000000     0.824000000
O    -4.721000000    -0.702000000     1.799000000
C    -3.666000000    -1.605000000     1.832000000
C    -3.072000000    -1.756000000     3.204000000
C    -3.331000000    -0.833000000     4.254000000
H    -4.127000000    -0.103000000     4.132000000
C    -2.127000000    -2.753000000     3.429000000
H    -1.852000000    -3.472000000     2.661000000
O    -3.954000000    -2.894000000     1.276000000
H    -2.876000000    -1.185000000     1.192000000
C    -5.065000000    -0.102000000    -0.475000000
C    -5.339000000    -1.513000000    -0.972000000
H    -6.011000000    -1.421000000    -1.828000000
H    -5.977000000    -2.112000000    -0.318000000
C    -4.090000000    -2.341000000    -1.083000000
C    -3.507000000    -3.082000000    -0.049000000
C    -2.354000000    -3.832000000    -0.203000000
H    -1.798000000    -4.296000000     0.607000000
C    -1.805000000    -4.004000000    -1.489000000
O    -0.624000000    -4.669000000    -1.631000000
C     0.568000000    -3.882000000    -1.779000000
H     0.486000000    -2.888000000    -1.316000000
C     1.616000000    -4.515000000    -1.014000000
C     2.964000000    -4.320000000    -1.373000000
H     3.179000000    -3.849000000    -2.329000000
C     1.379000000    -5.279000000     0.155000000
H     0.362000000    -5.519000000     0.456000000
C     2.456000000    -5.851000000     0.849000000
O     2.213000000    -6.650000000     1.954000000
C     3.732000000    -5.480000000     0.556000000
H     4.535000000    -5.897000000     1.159000000
C     4.044000000    -4.682000000    -0.557000000
O     5.338000000    -4.458000000    -0.855000000
C     5.796000000    -3.460000000    -1.708000000
C     5.816000000    -2.108000000    -1.383000000
H     5.515000000    -1.852000000    -0.371000000
C     6.197000000    -3.816000000    -2.989000000
H     6.068000000    -4.862000000    -3.255000000
C     6.737000000    -2.873000000    -3.829000000
H     7.030000000    -3.245000000    -4.807000000
C     7.021000000    -1.570000000    -3.397000000
H     7.431000000    -0.837000000    -4.087000000
C     6.452000000    -1.180000000    -2.251000000
O     6.576000000     0.174000000    -1.996000000
C     5.499000000     1.069000000    -2.001000000
C     5.633000000     2.161000000    -1.198000000
H     6.359000000     2.227000000    -0.392000000
C     4.676000000     3.127000000    -1.150000000
O     4.912000000     4.075000000    -0.208000000
C     4.211000000     5.268000000    -0.069000000
C     3.132000000     5.200000000     0.764000000
H     2.775000000     4.298000000     1.254000000
C     4.670000000     6.367000000    -0.783000000
H     5.404000000     6.220000000    -1.570000000
C     4.128000000     7.634000000    -0.516000000
H     4.456000000     8.559000000    -0.984000000
C     3.101000000     7.597000000     0.432000000
H     2.705000000     8.575000000     0.692000000
C     2.489000000     6.423000000     0.907000000
O     1.586000000     6.643000000     1.917000000
C     0.624000000     5.731000000     2.204000000
C     0.279000000     5.490000000     3.512000000
H     0.951000000     5.853000000     4.285000000
C    -0.755000000     4.603000000     3.814000000
O    -0.944000000     4.254000000     5.159000000
C    -1.981000000     3.470000000     5.642000000
C    -1.892000000     2.095000000     5.658000000
H    -0.980000000     1.529000000     5.492000000
C    -3.181000000     4.112000000     6.037000000
H    -3.311000000     5.184000000     5.916000000
C    -4.201000000     3.381000000     6.637000000
H    -4.989000000     3.934000000     7.142000000
C    -4.128000000     2.009000000     6.735000000
H    -4.846000000     1.422000000     7.301000000
C    -2.949000000     1.409000000     6.240000000
O    -2.736000000     0.043000000     6.453000000
C    -2.603000000    -0.929000000     5.443000000
C    -1.640000000    -1.847000000     5.623000000
H    -0.940000000    -1.827000000     6.454000000
C    -1.386000000    -2.790000000     4.623000000
O    -0.298000000    -3.613000000     4.826000000
C    -0.184000000    -4.751000000     4.117000000
C    -1.153000000    -5.694000000     4.311000000
H    -1.868000000    -5.425000000     5.084000000
C    -1.101000000    -6.844000000     3.561000000
H    -1.939000000    -7.519000000     3.713000000
C     0.064000000    -7.202000000     2.890000000
H     0.063000000    -8.186000000     2.429000000
C     1.152000000    -6.289000000     2.765000000
C     0.951000000    -5.065000000     3.398000000
H     1.700000000    -4.284000000     3.286000000
C     2.390000000     0.815000000     1.556000000
H     3.476000000     0.826000000     1.537000000
C     1.590000000     0.332000000     0.465000000
H     2.014000000    -0.158000000    -0.408000000
C     0.227000000     0.357000000     0.593000000
C    -0.599000000    -0.421000000    -0.508000000
H    -1.414000000     0.212000000    -0.863000000
H     0.024000000    -0.734000000    -1.349000000
H    -1.025000000    -1.370000000    -0.177000000
C    -0.398000000     0.965000000     1.700000000
H    -1.476000000     0.838000000     1.763000000
C     0.372000000     1.485000000     2.712000000
H    -0.082000000     2.067000000     3.510000000
C     1.743000000     1.460000000     2.624000000
C     2.623000000     2.030000000     3.648000000
O     2.089000000     2.258000000     4.781000000
O     3.807000000     2.192000000     3.502000000
O     1.560000000    -1.603000000     5.038000000
H     1.817000000    -0.970000000     5.709000000
H     0.987000000    -1.111000000     4.451000000
O     7.574000000     0.494000000     6.680000000
H     6.772000000     0.901000000     6.350000000
H     7.988000000     1.176000000     7.208000000
O     6.494000000     4.323000000     4.836000000
H     5.649000000     4.745000000     4.685000000
H     7.111000000     5.048000000     4.930000000
O     5.563000000     4.184000000     8.244000000
H     4.943000000     4.911000000     8.189000000
H     5.063000000     3.421000000     7.955000000
O     5.182000000    -0.169000000     3.944000000
H     4.938000000    -0.406000000     4.839000000
H     4.832000000     0.714000000     3.826000000
O     2.486000000     0.468000000     6.585000000
H     2.398000000     1.157000000     5.926000000
H     2.152000000     0.863000000     7.390000000
O     4.183000000    -1.525000000     7.811000000
H     4.003000000    -2.459000000     7.708000000
H     3.596000000    -1.098000000     7.187000000
O     1.606000000     4.527000000     6.792000000
H     1.101000000     4.018000000     6.158000000
H     2.153000000     3.879000000     7.237000000
O     3.156000000     2.680000000     8.515000000
H     3.884000000     2.071000000     8.389000000
H     2.438000000     2.133000000     8.832000000
O     1.174000000     1.149000000     8.946000000
H     1.318000000     0.320000000     9.402000000
H     0.228000000     1.284000000     8.987000000
O     5.178000000     1.074000000     8.655000000
H     5.459000000     1.264000000     7.760000000
H     4.809000000     0.192000000     8.608000000
O     5.318000000     2.110000000     5.962000000
H     5.932000000     2.736000000     5.580000000
H     4.572000000     2.109000000     5.363000000
O     8.838000000     2.732000000     1.051000000
H     8.739000000     2.801000000     0.101000000
H     7.945000000     2.788000000     1.390000000
O    -0.215000000     4.759000000     8.981000000
H     0.281000000     4.854000000     8.168000000
H     0.452000000     4.633000000     9.656000000
O     3.768000000    -2.462000000     3.518000000
H     3.065000000    -2.018000000     3.992000000
H     4.262000000    -1.754000000     3.104000000
O     6.513000000     2.538000000     2.661000000
H     5.599000000     2.331000000     2.852000000
H     6.815000000     3.021000000     3.431000000
O     8.141000000    -0.264000000     2.850000000
H     8.484000000     0.274000000     2.137000000
H     7.342000000     0.184000000     3.125000000
O     3.662000000     4.846000000     4.703000000
H     2.914000000     4.860000000     5.300000000
H     3.409000000     4.231000000     4.015000000
O     3.852000000     6.110000000     7.588000000
H     3.478000000     5.392000000     7.077000000
H     3.343000000     6.878000000     7.328000000
