218
-1463.51684
C     3.637000000     3.061000000    -2.078000000
H     3.003000000     3.897000000    -1.793000000
C     3.133000000     1.963000000    -2.768000000
C     3.985000000     0.936000000    -3.068000000
H     3.574000000     0.131000000    -3.670000000
C     1.709000000     1.936000000    -3.151000000
O     1.167000000     3.295000000    -3.264000000
H     1.159000000     1.407000000    -2.360000000
O     1.450000000     1.208000000    -4.372000000
C     0.389000000     0.371000000    -4.447000000
C     0.633000000    -1.002000000    -4.283000000
H     1.682000000    -1.290000000    -4.279000000
C    -0.426000000    -1.871000000    -4.224000000
O    -0.257000000    -3.240000000    -4.033000000
C    -1.739000000    -1.366000000    -4.374000000
C    -2.946000000    -2.304000000    -4.244000000
H    -3.820000000    -1.830000000    -4.695000000
C    -3.264000000    -2.573000000    -2.748000000
C    -4.171000000    -1.645000000    -2.126000000
H    -4.756000000    -0.918000000    -2.683000000
H    -2.824000000    -3.261000000    -4.756000000
C    -1.985000000    -0.013000000    -4.484000000
H    -2.978000000     0.424000000    -4.551000000
C    -0.903000000     0.849000000    -4.616000000
C    -1.271000000     2.309000000    -4.764000000
H    -2.224000000     2.353000000    -5.296000000
H    -0.536000000     2.881000000    -5.335000000
C    -1.295000000     2.982000000    -3.429000000
C    -2.551000000     3.207000000    -2.795000000
H    -3.387000000     2.885000000    -3.410000000
C    -0.157000000     3.544000000    -2.805000000
C    -0.265000000     4.179000000    -1.573000000
H     0.613000000     4.584000000    -1.076000000
C    -1.497000000     4.225000000    -0.917000000
O    -1.487000000     4.869000000     0.339000000
C    -1.614000000     3.988000000     1.439000000
C    -0.615000000     4.240000000     2.620000000
C    -1.066000000     4.212000000     3.967000000
H    -2.119000000     4.065000000     4.193000000
C     0.702000000     4.353000000     2.258000000
H     0.940000000     4.398000000     1.198000000
O    -2.976000000     3.844000000     1.868000000
H    -1.301000000     2.984000000     1.117000000
C    -2.666000000     3.714000000    -1.513000000
C    -4.054000000     3.939000000    -0.915000000
H    -4.795000000     4.138000000    -1.692000000
H    -4.049000000     4.821000000    -0.272000000
C    -4.267000000     2.716000000     0.100000000
C    -4.732000000     1.493000000    -0.391000000
H    -5.034000000     1.364000000    -1.428000000
C    -3.611000000     2.760000000     1.353000000
C    -3.664000000     1.616000000     2.162000000
H    -3.273000000     1.631000000     3.176000000
C    -4.260000000     0.435000000     1.722000000
O    -4.089000000    -0.671000000     2.484000000
C    -3.019000000    -1.553000000     2.139000000
C    -2.247000000    -2.082000000     3.329000000
C    -2.179000000    -1.353000000     4.527000000
H    -2.839000000    -0.494000000     4.621000000
C    -1.390000000    -3.186000000     3.234000000
H    -1.426000000    -3.760000000     2.311000000
O    -3.562000000    -2.641000000     1.432000000
H    -2.236000000    -1.196000000     1.454000000
C    -4.805000000     0.355000000     0.457000000
C    -5.408000000    -0.917000000    -0.049000000
H    -6.170000000    -0.559000000    -0.745000000
H    -5.864000000    -1.504000000     0.751000000
C    -4.318000000    -1.698000000    -0.713000000
C    -3.558000000    -2.653000000     0.070000000
C    -2.777000000    -3.610000000    -0.602000000
H    -2.165000000    -4.232000000     0.046000000
C    -2.613000000    -3.552000000    -1.965000000
O    -1.678000000    -4.331000000    -2.515000000
C    -0.380000000    -3.670000000    -2.694000000
H    -0.340000000    -2.814000000    -2.004000000
C     0.829000000    -4.512000000    -2.302000000
C     2.133000000    -4.230000000    -2.776000000
H     2.261000000    -3.505000000    -3.576000000
C     0.774000000    -5.426000000    -1.272000000
H    -0.180000000    -5.569000000    -0.769000000
C     1.859000000    -6.156000000    -0.824000000
O     1.779000000    -7.094000000     0.152000000
C     3.121000000    -5.932000000    -1.337000000
H     3.958000000    -6.491000000    -0.927000000
C     3.221000000    -4.903000000    -2.292000000
O     4.442000000    -4.746000000    -2.846000000
C     4.901000000    -3.570000000    -3.465000000
C     5.291000000    -2.474000000    -2.794000000
H     5.320000000    -2.522000000    -1.708000000
C     5.036000000    -3.642000000    -4.855000000
H     4.752000000    -4.519000000    -5.430000000
C     5.521000000    -2.615000000    -5.600000000
H     5.724000000    -2.811000000    -6.650000000
C     5.746000000    -1.406000000    -4.908000000
H     6.017000000    -0.482000000    -5.412000000
C     5.757000000    -1.370000000    -3.477000000
O     6.119000000    -0.227000000    -2.788000000
C     5.322000000     0.871000000    -2.671000000
C     5.799000000     1.998000000    -2.015000000
H     6.793000000     2.039000000    -1.577000000
C     4.983000000     3.053000000    -1.736000000
O     5.503000000     4.105000000    -0.988000000
C     4.703000000     4.966000000    -0.245000000
C     4.266000000     4.454000000     1.023000000
H     4.451000000     3.439000000     1.363000000
C     4.422000000     6.286000000    -0.613000000
H     4.947000000     6.653000000    -1.492000000
C     3.694000000     7.099000000     0.199000000
H     3.477000000     8.074000000    -0.230000000
C     3.189000000     6.617000000     1.386000000
H     2.521000000     7.233000000     1.982000000
C     3.438000000     5.299000000     1.778000000
O     2.992000000     4.748000000     2.950000000
C     1.643000000     4.616000000     3.242000000
C     1.286000000     4.431000000     4.577000000
H     2.058000000     4.246000000     5.319000000
C    -0.059000000     4.157000000     4.921000000
O    -0.460000000     3.967000000     6.209000000
C    -1.268000000     2.925000000     6.421000000
C    -0.800000000     1.607000000     6.508000000
H     0.247000000     1.368000000     6.338000000
C    -2.543000000     3.252000000     6.797000000
H    -2.937000000     4.265000000     6.795000000
C    -3.402000000     2.168000000     6.918000000
H    -4.443000000     2.390000000     7.138000000
C    -2.955000000     0.855000000     6.897000000
H    -3.686000000     0.056000000     6.997000000
C    -1.663000000     0.516000000     6.724000000
O    -1.200000000    -0.816000000     6.651000000
C    -1.304000000    -1.695000000     5.581000000
C    -0.390000000    -2.749000000     5.350000000
H     0.322000000    -3.055000000     6.112000000
C    -0.426000000    -3.531000000     4.203000000
O     0.569000000    -4.484000000     4.039000000
C     0.530000000    -5.593000000     3.315000000
C    -0.502000000    -6.519000000     3.563000000
H    -1.248000000    -6.254000000     4.308000000
C    -0.802000000    -7.529000000     2.658000000
H    -1.734000000    -8.069000000     2.802000000
C    -0.004000000    -7.701000000     1.525000000
H    -0.257000000    -8.514000000     0.849000000
C     1.072000000    -6.918000000     1.332000000
C     1.364000000    -5.815000000     2.197000000
H     2.204000000    -5.146000000     2.030000000
C     2.715000000     0.731000000     0.982000000
H     3.738000000     0.552000000     0.659000000
C     1.638000000     0.453000000     0.152000000
H     1.707000000     0.151000000    -0.890000000
C     0.360000000     0.562000000     0.623000000
C    -0.911000000     0.493000000    -0.156000000
H    -1.122000000    -0.534000000    -0.462000000
H    -1.676000000     0.861000000     0.531000000
H    -0.931000000     1.112000000    -1.055000000
C     0.156000000     0.921000000     1.957000000
H    -0.823000000     1.147000000     2.373000000
C     1.179000000     1.194000000     2.814000000
H     1.004000000     1.555000000     3.824000000
C     2.512000000     1.065000000     2.361000000
C     3.615000000     1.350000000     3.299000000
O     3.426000000     1.148000000     4.484000000
O     4.753000000     1.601000000     2.909000000
O     3.126000000    -2.421000000     1.300000000
H     3.398000000    -2.430000000     2.217000000
H     2.275000000    -1.983000000     1.307000000
O     5.238000000     5.103000000     8.331000000
H     5.172000000     4.552000000     7.551000000
H     6.122000000     4.946000000     8.662000000
O     5.905000000    -0.137000000     4.558000000
H     5.512000000     0.604000000     4.097000000
H     5.384000000    -0.227000000     5.355000000
O     5.761000000     3.311000000     5.690000000
H     5.400000000     3.970000000     5.096000000
H     4.994000000     2.904000000     6.091000000
O     1.324000000     2.960000000     8.963000000
H     1.849000000     2.494000000     8.313000000
H     0.679000000     2.317000000     9.256000000
O     3.692000000    -2.085000000     4.110000000
H     2.945000000    -1.890000000     4.677000000
H     4.194000000    -1.270000000     4.087000000
O     8.268000000     4.184000000     3.646000000
H     7.656000000     3.712000000     3.081000000
H     8.259000000     3.696000000     4.469000000
O     0.876000000    -1.390000000     8.399000000
H     1.216000000    -1.448000000     7.506000000
H     0.127000000    -1.987000000     8.409000000
O     5.283000000     5.837000000     4.460000000
H     4.470000000     5.643000000     3.994000000
H     5.047000000     6.533000000     5.074000000
O     8.037000000     0.116000000     2.713000000
H     7.900000000    -0.634000000     2.135000000
H     7.393000000     0.000000000     3.412000000
O     5.377000000     0.344000000     7.720000000
H     5.478000000    -0.604000000     7.804000000
H     5.110000000     0.634000000     8.593000000
O     8.396000000     2.841000000     5.896000000
H     7.501000000     3.178000000     5.876000000
H     8.296000000     1.908000000     6.084000000
O     1.902000000    -0.825000000     5.824000000
H     1.049000000    -0.858000000     5.391000000
H     2.394000000    -0.167000000     5.335000000
O     8.713000000     1.986000000    -0.097000000
H     8.066000000     2.268000000     0.549000000
H     9.505000000     2.473000000     0.128000000
O     7.566000000    -2.101000000     1.172000000
H     7.090000000    -2.899000000     0.944000000
H     7.845000000    -1.739000000     0.331000000
O     7.245000000    -2.761000000     4.569000000
H     6.501000000    -2.161000000     4.620000000
H     7.590000000    -2.639000000     3.684000000
O     6.931000000     2.378000000     1.825000000
H     6.043000000     2.141000000     2.093000000
H     7.447000000     1.587000000     1.978000000
O     8.255000000     0.175000000     6.620000000
H     7.467000000     0.277000000     7.153000000
H     7.992000000    -0.413000000     5.911000000
O     3.319000000     2.177000000     6.983000000
H     3.183000000     2.019000000     6.049000000
H     4.069000000     1.628000000     7.212000000
