218
-1493.32671
C     3.416000000     3.851000000    -1.428000000
H     2.751000000     4.647000000    -1.102000000
C     3.026000000     2.927000000    -2.344000000
C     3.928000000     1.979000000    -2.860000000
H     3.649000000     1.119000000    -3.464000000
C     1.583000000     2.725000000    -2.752000000
O     0.878000000     3.936000000    -2.520000000
H     1.105000000     1.962000000    -2.121000000
O     1.364000000     2.460000000    -4.157000000
C     0.348000000     1.523000000    -4.352000000
C     0.711000000     0.186000000    -4.434000000
H     1.720000000    -0.201000000    -4.323000000
C    -0.259000000    -0.811000000    -4.554000000
O     0.242000000    -2.109000000    -4.311000000
C    -1.598000000    -0.481000000    -4.618000000
C    -2.640000000    -1.623000000    -4.710000000
H    -3.525000000    -1.293000000    -5.259000000
C    -3.033000000    -2.064000000    -3.314000000
C    -4.051000000    -1.447000000    -2.598000000
H    -4.573000000    -0.591000000    -3.020000000
H    -2.106000000    -2.427000000    -5.219000000
C    -1.925000000     0.852000000    -4.433000000
H    -2.981000000     1.091000000    -4.535000000
C    -0.954000000     1.874000000    -4.344000000
C    -1.437000000     3.289000000    -4.166000000
H    -2.434000000     3.361000000    -4.605000000
H    -0.768000000     4.017000000    -4.629000000
C    -1.520000000     3.618000000    -2.675000000
C    -2.785000000     3.662000000    -2.057000000
H    -3.664000000     3.359000000    -2.621000000
C    -0.381000000     4.017000000    -1.962000000
C    -0.556000000     4.452000000    -0.662000000
H     0.296000000     4.591000000    -0.001000000
C    -1.762000000     4.387000000    -0.026000000
O    -1.699000000     4.480000000     1.345000000
C    -1.694000000     3.246000000     2.176000000
C    -0.624000000     3.318000000     3.296000000
C    -0.718000000     2.576000000     4.483000000
H    -1.586000000     1.940000000     4.637000000
C     0.428000000     4.224000000     3.179000000
H     0.511000000     4.920000000     2.348000000
O    -3.054000000     3.061000000     2.610000000
H    -1.395000000     2.467000000     1.461000000
C    -2.925000000     3.960000000    -0.722000000
C    -4.290000000     3.779000000    -0.026000000
H    -5.094000000     3.944000000    -0.746000000
H    -4.349000000     4.595000000     0.697000000
C    -4.340000000     2.368000000     0.658000000
C    -4.894000000     1.301000000    -0.101000000
H    -5.300000000     1.451000000    -1.098000000
C    -3.772000000     2.068000000     1.911000000
C    -3.763000000     0.755000000     2.457000000
H    -3.364000000     0.621000000     3.459000000
C    -4.349000000    -0.294000000     1.679000000
O    -4.285000000    -1.589000000     2.085000000
C    -3.175000000    -2.350000000     1.548000000
C    -2.449000000    -3.227000000     2.656000000
C    -1.916000000    -2.560000000     3.734000000
H    -2.057000000    -1.484000000     3.803000000
C    -2.041000000    -4.507000000     2.426000000
H    -2.459000000    -5.080000000     1.603000000
O    -3.654000000    -3.302000000     0.540000000
H    -2.451000000    -1.622000000     1.153000000
C    -4.971000000     0.009000000     0.448000000
C    -5.506000000    -1.157000000    -0.489000000
H    -6.221000000    -0.725000000    -1.192000000
H    -6.090000000    -1.821000000     0.150000000
C    -4.380000000    -1.896000000    -1.321000000
C    -3.601000000    -2.914000000    -0.753000000
C    -2.513000000    -3.421000000    -1.426000000
H    -1.956000000    -4.154000000    -0.847000000
C    -2.239000000    -3.038000000    -2.685000000
O    -1.135000000    -3.576000000    -3.168000000
C     0.088000000    -2.764000000    -3.033000000
H    -0.084000000    -2.020000000    -2.241000000
C     1.278000000    -3.439000000    -2.471000000
C     2.519000000    -2.837000000    -2.600000000
H     2.692000000    -1.814000000    -2.923000000
C     1.115000000    -4.725000000    -1.920000000
H     0.170000000    -5.223000000    -1.717000000
C     2.200000000    -5.436000000    -1.448000000
O     2.159000000    -6.656000000    -0.934000000
C     3.493000000    -4.906000000    -1.671000000
H     4.380000000    -5.456000000    -1.368000000
C     3.629000000    -3.627000000    -2.203000000
O     4.919000000    -3.160000000    -2.324000000
C     5.296000000    -2.225000000    -3.230000000
C     5.585000000    -0.988000000    -2.706000000
H     5.538000000    -0.872000000    -1.626000000
C     5.199000000    -2.348000000    -4.589000000
H     4.829000000    -3.297000000    -4.968000000
C     5.517000000    -1.291000000    -5.475000000
H     5.399000000    -1.311000000    -6.555000000
C     5.913000000    -0.066000000    -4.908000000
H     5.991000000     0.818000000    -5.535000000
C     5.938000000     0.060000000    -3.513000000
O     6.229000000     1.257000000    -2.973000000
C     5.268000000     2.145000000    -2.553000000
C     5.655000000     3.131000000    -1.634000000
H     6.699000000     3.295000000    -1.376000000
C     4.721000000     3.907000000    -0.968000000
O     5.137000000     4.740000000     0.042000000
C     4.315000000     5.456000000     0.885000000
C     3.876000000     4.902000000     2.035000000
H     4.067000000     3.863000000     2.293000000
C     3.935000000     6.740000000     0.530000000
H     4.495000000     7.210000000    -0.274000000
C     2.987000000     7.445000000     1.328000000
H     2.838000000     8.507000000     1.151000000
C     2.534000000     6.844000000     2.507000000
H     1.876000000     7.400000000     3.170000000
C     2.992000000     5.608000000     2.865000000
O     2.546000000     5.150000000     4.097000000
C     1.470000000     4.308000000     4.127000000
C     1.381000000     3.506000000     5.266000000
H     1.997000000     3.783000000     6.117000000
C     0.253000000     2.690000000     5.485000000
O     0.165000000     2.084000000     6.663000000
C    -0.527000000     0.925000000     6.859000000
C    -0.057000000    -0.172000000     6.243000000
H     0.885000000    -0.220000000     5.702000000
C    -1.594000000     0.844000000     7.690000000
H    -1.921000000     1.733000000     8.222000000
C    -2.436000000    -0.281000000     7.732000000
H    -3.397000000    -0.199000000     8.235000000
C    -2.120000000    -1.363000000     6.892000000
H    -2.741000000    -2.249000000     6.786000000
C    -0.850000000    -1.322000000     6.262000000
O    -0.411000000    -2.506000000     5.643000000
C    -1.101000000    -3.234000000     4.687000000
C    -0.636000000    -4.547000000     4.393000000
H     0.117000000    -5.030000000     5.011000000
C    -1.067000000    -5.132000000     3.233000000
O    -0.622000000    -6.366000000     2.965000000
C    -0.424000000    -6.809000000     1.689000000
C    -1.344000000    -7.657000000     1.068000000
H    -2.294000000    -7.926000000     1.523000000
C    -1.101000000    -8.141000000    -0.220000000
H    -1.875000000    -8.711000000    -0.727000000
C     0.091000000    -7.771000000    -0.877000000
H     0.165000000    -8.037000000    -1.928000000
C     1.001000000    -6.993000000    -0.222000000
C     0.801000000    -6.526000000     1.081000000
H     1.577000000    -5.889000000     1.496000000
C     2.443000000    -0.367000000     0.011000000
H     3.317000000    -0.588000000    -0.597000000
C     1.181000000    -0.222000000    -0.586000000
H     1.036000000    -0.226000000    -1.663000000
C     0.158000000     0.181000000     0.261000000
C    -1.177000000     0.320000000    -0.403000000
H    -1.935000000     0.701000000     0.284000000
H    -1.211000000     0.977000000    -1.274000000
H    -1.622000000    -0.643000000    -0.662000000
C     0.246000000     0.190000000     1.610000000
H    -0.573000000     0.608000000     2.190000000
C     1.495000000     0.052000000     2.206000000
H     1.702000000     0.038000000     3.273000000
C     2.623000000    -0.281000000     1.393000000
C     3.953000000    -0.512000000     2.022000000
O     4.073000000    -0.576000000     3.190000000
O     5.005000000    -0.679000000     1.341000000
O     3.727000000    -0.279000000     7.160000000
H     4.179000000    -0.466000000     7.983000000
H     3.997000000    -0.985000000     6.572000000
O     3.718000000    -3.401000000     1.407000000
H     3.950000000    -2.477000000     1.314000000
H     2.845000000    -3.468000000     1.021000000
O     7.372000000     3.232000000     1.455000000
H     7.118000000     2.389000000     1.079000000
H     6.614000000     3.798000000     1.307000000
O     6.564000000    -0.993000000     4.018000000
H     5.844000000    -0.566000000     3.554000000
H     6.962000000    -1.569000000     3.364000000
O     7.538000000    -2.027000000     1.624000000
H     7.898000000    -2.619000000     0.964000000
H     6.648000000    -1.843000000     1.321000000
O     3.836000000    -6.855000000     4.588000000
H     3.028000000    -7.335000000     4.767000000
H     3.629000000    -5.947000000     4.810000000
O     3.811000000     1.409000000     4.980000000
H     4.013000000     0.650000000     4.433000000
H     3.719000000     1.051000000     5.863000000
O     5.789000000    -5.011000000     0.542000000
H     6.004000000    -5.462000000     1.359000000
H     4.976000000    -4.544000000     0.733000000
O     0.807000000    -3.028000000     0.964000000
H     0.327000000    -3.095000000     1.789000000
H     0.892000000    -2.087000000     0.812000000
O     8.727000000     0.094000000    -1.555000000
H     9.606000000     0.468000000    -1.503000000
H     8.235000000     0.541000000    -0.866000000
O     2.965000000    -4.135000000     4.446000000
H     2.927000000    -3.955000000     3.507000000
H     3.487000000    -3.418000000     4.806000000
O     7.806000000     1.247000000     5.592000000
H     7.065000000     1.846000000     5.507000000
H     7.727000000     0.660000000     4.840000000
O     8.149000000    -3.864000000    -0.492000000
H     7.314000000    -4.311000000    -0.360000000
H     8.187000000    -3.700000000    -1.434000000
O     8.929000000     3.231000000     3.749000000
H     8.204000000     3.051000000     3.150000000
H     8.649000000     2.854000000     4.583000000
O     1.894000000    -4.974000000     6.852000000
H     2.235000000    -4.319000000     6.243000000
H     2.296000000    -4.752000000     7.692000000
O     6.017000000     3.063000000     4.563000000
H     5.775000000     3.987000000     4.620000000
H     5.188000000     2.592000000     4.648000000
O     7.006000000     0.783000000     0.660000000
H     7.599000000     0.039000000     0.760000000
H     6.184000000     0.488000000     1.053000000
O     4.407000000    -2.094000000     5.275000000
H     5.228000000    -2.584000000     5.317000000
H     4.511000000    -1.515000000     4.521000000
O     8.247000000    -2.465000000     5.875000000
H     9.128000000    -2.158000000     5.659000000
H     7.664000000    -1.893000000     5.376000000
