218
-1469.02675
C    -3.473000000    -2.170000000    -2.861000000
H    -3.452000000    -1.238000000    -3.422000000
C    -3.686000000    -2.104000000    -1.457000000
C    -3.790000000    -3.306000000    -0.752000000
H    -3.871000000    -3.290000000     0.332000000
C    -3.850000000    -0.774000000    -0.855000000
O    -4.381000000     0.197000000    -1.733000000
H    -2.878000000    -0.546000000    -0.394000000
O    -4.783000000    -0.816000000     0.236000000
C    -4.432000000    -0.225000000     1.430000000
C    -3.601000000    -0.971000000     2.273000000
H    -3.488000000    -2.045000000     2.149000000
C    -3.071000000    -0.310000000     3.410000000
O    -2.289000000    -1.144000000     4.231000000
C    -3.247000000     1.066000000     3.676000000
C    -2.540000000     1.688000000     4.821000000
H    -3.102000000     2.574000000     5.126000000
C    -1.072000000     2.000000000     4.334000000
C    -0.872000000     3.298000000     3.759000000
H    -1.739000000     3.927000000     3.574000000
H    -2.594000000     1.059000000     5.712000000
C    -3.858000000     1.762000000     2.632000000
H    -3.772000000     2.844000000     2.697000000
C    -4.513000000     1.172000000     1.541000000
C    -5.145000000     2.042000000     0.435000000
H    -5.543000000     2.977000000     0.834000000
H    -5.971000000     1.506000000    -0.036000000
C    -4.123000000     2.336000000    -0.684000000
C    -3.480000000     3.575000000    -0.728000000
H    -3.627000000     4.279000000     0.087000000
C    -3.814000000     1.427000000    -1.701000000
C    -2.989000000     1.775000000    -2.749000000
H    -2.804000000     1.022000000    -3.511000000
C    -2.323000000     3.033000000    -2.788000000
O    -1.435000000     3.224000000    -3.864000000
C    -0.088000000     2.987000000    -3.433000000
C     0.680000000     2.100000000    -4.434000000
C     2.074000000     2.194000000    -4.548000000
H     2.643000000     2.762000000    -3.816000000
C    -0.013000000     1.318000000    -5.404000000
H    -1.098000000     1.385000000    -5.441000000
O     0.516000000     4.227000000    -3.069000000
H    -0.164000000     2.364000000    -2.529000000
C    -2.513000000     3.948000000    -1.723000000
C    -1.786000000     5.268000000    -1.685000000
H    -2.325000000     6.060000000    -1.161000000
H    -1.609000000     5.602000000    -2.710000000
C    -0.510000000     5.006000000    -0.970000000
C    -0.507000000     5.037000000     0.449000000
H    -1.433000000     5.301000000     0.952000000
C     0.587000000     4.531000000    -1.688000000
C     1.825000000     4.189000000    -0.949000000
H     2.720000000     3.755000000    -1.386000000
C     1.862000000     4.384000000     0.423000000
O     3.025000000     3.987000000     1.066000000
C     2.917000000     2.674000000     1.691000000
C     4.072000000     1.783000000     1.273000000
C     4.205000000     1.146000000    -0.006000000
H     3.575000000     1.346000000    -0.869000000
C     4.855000000     1.266000000     2.311000000
H     4.742000000     1.556000000     3.352000000
O     2.700000000     2.941000000     3.072000000
H     2.019000000     2.183000000     1.289000000
C     0.683000000     4.796000000     1.163000000
C     0.678000000     4.909000000     2.655000000
H     0.015000000     5.726000000     2.945000000
H     1.699000000     5.184000000     2.929000000
C     0.384000000     3.613000000     3.328000000
C     1.451000000     2.707000000     3.554000000
C     1.240000000     1.473000000     4.116000000
H     2.072000000     0.780000000     4.204000000
C    -0.046000000     1.086000000     4.503000000
O    -0.226000000    -0.209000000     4.876000000
C    -0.898000000    -1.076000000     3.922000000
H    -0.910000000    -0.629000000     2.917000000
C    -0.220000000    -2.488000000     3.824000000
C    -0.953000000    -3.549000000     3.385000000
H    -2.038000000    -3.527000000     3.315000000
C     1.177000000    -2.554000000     4.109000000
H     1.614000000    -1.668000000     4.563000000
C     1.914000000    -3.730000000     3.919000000
O     3.287000000    -3.866000000     4.087000000
C     1.172000000    -4.827000000     3.416000000
H     1.714000000    -5.762000000     3.297000000
C    -0.251000000    -4.727000000     3.218000000
O    -0.948000000    -5.911000000     2.995000000
C    -2.216000000    -5.964000000     2.467000000
C    -2.378000000    -5.860000000     1.087000000
H    -1.470000000    -5.638000000     0.533000000
C    -3.329000000    -6.267000000     3.310000000
H    -3.262000000    -6.214000000     4.394000000
C    -4.556000000    -6.493000000     2.648000000
H    -5.395000000    -6.708000000     3.304000000
C    -4.707000000    -6.370000000     1.245000000
H    -5.688000000    -6.571000000     0.822000000
C    -3.573000000    -6.120000000     0.473000000
O    -3.611000000    -5.828000000    -0.858000000
C    -3.555000000    -4.573000000    -1.428000000
C    -3.423000000    -4.597000000    -2.820000000
H    -3.384000000    -5.550000000    -3.342000000
C    -3.402000000    -3.398000000    -3.531000000
O    -3.007000000    -3.500000000    -4.860000000
C    -2.805000000    -2.410000000    -5.610000000
C    -1.523000000    -1.930000000    -5.923000000
H    -0.624000000    -2.426000000    -5.566000000
C    -3.870000000    -1.738000000    -6.169000000
H    -4.871000000    -2.122000000    -5.986000000
C    -3.719000000    -0.567000000    -6.902000000
H    -4.499000000     0.028000000    -7.371000000
C    -2.441000000    -0.170000000    -7.270000000
H    -2.326000000     0.698000000    -7.915000000
C    -1.309000000    -0.833000000    -6.768000000
O    -0.031000000    -0.408000000    -7.106000000
C     0.654000000     0.467000000    -6.288000000
C     2.019000000     0.513000000    -6.334000000
H     2.523000000    -0.096000000    -7.080000000
C     2.737000000     1.385000000    -5.450000000
O     4.077000000     1.418000000    -5.580000000
C     4.998000000     1.259000000    -4.535000000
C     4.698000000     0.351000000    -3.476000000
H     3.746000000    -0.174000000    -3.490000000
C     6.181000000     2.023000000    -4.441000000
H     6.445000000     2.691000000    -5.257000000
C     7.068000000     1.910000000    -3.399000000
H     7.926000000     2.576000000    -3.367000000
C     6.848000000     0.968000000    -2.447000000
H     7.599000000     0.907000000    -1.664000000
C     5.670000000     0.227000000    -2.452000000
O     5.264000000    -0.515000000    -1.386000000
C     5.095000000     0.155000000    -0.177000000
C     5.770000000    -0.364000000     0.863000000
H     6.419000000    -1.219000000     0.695000000
C     5.727000000     0.214000000     2.145000000
O     6.389000000    -0.311000000     3.235000000
C     5.733000000    -1.145000000     4.089000000
C     6.008000000    -1.086000000     5.389000000
H     6.893000000    -0.557000000     5.735000000
C     5.391000000    -1.954000000     6.299000000
H     5.640000000    -1.969000000     7.357000000
C     4.399000000    -2.823000000     5.840000000
H     3.843000000    -3.405000000     6.570000000
C     4.121000000    -2.868000000     4.462000000
C     4.777000000    -2.011000000     3.606000000
H     4.355000000    -1.954000000     2.606000000
C     1.168000000    -1.174000000    -2.241000000
H     1.140000000    -1.355000000    -3.312000000
C     0.193000000    -0.306000000    -1.659000000
H    -0.587000000     0.163000000    -2.253000000
C     0.138000000    -0.058000000    -0.361000000
C    -0.762000000     1.082000000     0.187000000
H    -0.780000000     1.849000000    -0.590000000
H    -1.685000000     0.849000000     0.722000000
H    -0.177000000     1.608000000     0.944000000
C     0.988000000    -0.722000000     0.471000000
H     0.932000000    -0.557000000     1.544000000
C     1.976000000    -1.557000000    -0.071000000
H     2.721000000    -2.024000000     0.569000000
C     2.088000000    -1.723000000    -1.405000000
C     3.186000000    -2.690000000    -1.871000000
O     3.621000000    -3.559000000    -1.175000000
O     3.535000000    -2.789000000    -3.039000000
O     2.610000000    -6.066000000    -0.927000000
H     2.846000000    -5.153000000    -1.091000000
H     3.067000000    -6.289000000    -0.116000000
O     2.144000000    -5.876000000    -6.255000000
H     2.676000000    -5.695000000    -7.030000000
H     2.200000000    -5.075000000    -5.734000000
O    -1.126000000    -6.470000000    -5.590000000
H    -0.317000000    -6.012000000    -5.365000000
H    -1.405000000    -6.880000000    -4.770000000
O     8.152000000    -3.904000000    -5.783000000
H     7.849000000    -3.076000000    -5.411000000
H     7.376000000    -4.278000000    -6.201000000
O     5.610000000    -3.787000000     0.671000000
H     5.851000000    -4.684000000     0.443000000
H     4.812000000    -3.618000000     0.169000000
O     4.652000000    -2.027000000    -5.049000000
H     4.236000000    -2.328000000    -4.242000000
H     3.941000000    -1.627000000    -5.550000000
O     2.266000000    -2.402000000    -7.707000000
H     1.373000000    -2.589000000    -7.998000000
H     2.222000000    -2.452000000    -6.752000000
O     8.175000000    -5.125000000    -3.280000000
H     8.324000000    -4.706000000    -4.128000000
H     7.950000000    -4.403000000    -2.693000000
O     5.102000000    -5.292000000    -2.783000000
H     4.747000000    -4.497000000    -2.386000000
H     5.485000000    -4.998000000    -3.609000000
O     0.302000000    -4.830000000    -3.362000000
H     0.920000000    -5.330000000    -2.829000000
H    -0.460000000    -4.709000000    -2.796000000
O     8.105000000    -3.315000000     1.934000000
H     7.173000000    -3.524000000     1.871000000
H     8.385000000    -3.712000000     2.759000000
O     6.439000000    -6.165000000    -0.218000000
H     7.352000000    -6.284000000    -0.481000000
H     5.967000000    -6.044000000    -1.041000000
O     4.129000000    -8.019000000    -2.173000000
H     4.737000000    -7.639000000    -2.807000000
H     3.591000000    -7.281000000    -1.886000000
O     7.318000000    -1.345000000    -5.024000000
H     7.339000000    -0.839000000    -5.836000000
H     6.401000000    -1.599000000    -4.924000000
O     0.583000000    -7.950000000    -1.705000000
H     1.338000000    -7.509000000    -1.315000000
H     0.621000000    -8.841000000    -1.359000000
O     4.328000000    -7.814000000    -5.430000000
H     3.455000000    -7.439000000    -5.308000000
H     4.166000000    -8.691000000    -5.777000000
O     3.833000000    -6.717000000     2.252000000
H     4.673000000    -7.055000000     2.564000000
H     3.731000000    -5.878000000     2.701000000
O     7.619000000    -3.400000000    -1.338000000
H     8.110000000    -2.616000000    -1.091000000
H     6.987000000    -3.519000000    -0.629000000
O     2.023000000    -3.357000000    -5.008000000
H     2.653000000    -3.110000000    -4.331000000
H     1.310000000    -3.779000000    -4.530000000
