218
-1435.32226
C     4.542000000     0.421000000    -2.442000000
H     4.784000000     1.281000000    -1.823000000
C     3.374000000     0.280000000    -3.149000000
C     3.222000000    -0.885000000    -3.891000000
H     2.281000000    -0.988000000    -4.426000000
C     2.330000000     1.340000000    -3.104000000
O     2.911000000     2.606000000    -2.750000000
H     1.624000000     1.064000000    -2.307000000
O     1.728000000     1.555000000    -4.412000000
C     0.368000000     1.768000000    -4.429000000
C    -0.365000000     0.571000000    -4.473000000
H     0.107000000    -0.342000000    -4.826000000
C    -1.736000000     0.586000000    -4.261000000
O    -2.444000000    -0.628000000    -4.402000000
C    -2.385000000     1.741000000    -3.757000000
C    -3.887000000     1.832000000    -3.474000000
H    -4.127000000     2.877000000    -3.681000000
C    -4.306000000     1.396000000    -2.002000000
C    -4.393000000     2.334000000    -0.984000000
H    -4.205000000     3.391000000    -1.153000000
H    -4.540000000     1.360000000    -4.211000000
C    -1.616000000     2.871000000    -3.480000000
H    -2.106000000     3.735000000    -3.038000000
C    -0.274000000     2.936000000    -3.945000000
C     0.567000000     4.159000000    -3.623000000
H     0.034000000     5.076000000    -3.883000000
H     1.428000000     4.099000000    -4.293000000
C     1.136000000     4.098000000    -2.224000000
C     0.443000000     4.767000000    -1.179000000
H    -0.497000000     5.256000000    -1.424000000
C     2.301000000     3.380000000    -1.819000000
C     2.702000000     3.292000000    -0.550000000
H     3.540000000     2.663000000    -0.264000000
C     1.986000000     4.032000000     0.493000000
O     2.439000000     3.917000000     1.732000000
C     1.692000000     2.980000000     2.592000000
C     2.727000000     2.178000000     3.439000000
C     2.426000000     1.787000000     4.793000000
H     1.488000000     2.044000000     5.278000000
C     3.892000000     1.727000000     2.816000000
H     4.010000000     1.938000000     1.756000000
O     0.784000000     3.693000000     3.450000000
H     1.162000000     2.279000000     1.932000000
C     0.797000000     4.618000000     0.188000000
C    -0.083000000     5.294000000     1.128000000
H    -0.607000000     6.132000000     0.663000000
H     0.486000000     5.942000000     1.799000000
C    -1.042000000     4.348000000     1.815000000
C    -2.369000000     4.220000000     1.326000000
H    -2.840000000     4.830000000     0.559000000
C    -0.555000000     3.669000000     2.919000000
C    -1.449000000     2.750000000     3.444000000
H    -1.061000000     2.167000000     4.276000000
C    -2.662000000     2.469000000     2.896000000
O    -3.371000000     1.363000000     3.318000000
C    -3.254000000     0.198000000     2.452000000
C    -2.728000000    -1.055000000     3.133000000
C    -2.096000000    -1.027000000     4.375000000
H    -2.118000000    -0.112000000     4.961000000
C    -2.798000000    -2.249000000     2.474000000
H    -3.235000000    -2.330000000     1.482000000
O    -4.532000000     0.016000000     1.818000000
H    -2.614000000     0.470000000     1.600000000
C    -3.188000000     3.237000000     1.897000000
C    -4.601000000     2.958000000     1.418000000
H    -5.223000000     3.790000000     1.081000000
H    -5.215000000     2.435000000     2.154000000
C    -4.482000000     1.916000000     0.278000000
C    -4.645000000     0.501000000     0.547000000
C    -4.681000000    -0.429000000    -0.509000000
H    -4.564000000    -1.484000000    -0.276000000
C    -4.502000000    -0.003000000    -1.805000000
O    -4.253000000    -0.893000000    -2.846000000
C    -2.862000000    -1.234000000    -3.145000000
H    -2.200000000    -0.858000000    -2.351000000
C    -2.629000000    -2.723000000    -3.107000000
C    -1.574000000    -3.252000000    -3.807000000
H    -0.939000000    -2.554000000    -4.347000000
C    -3.483000000    -3.591000000    -2.408000000
H    -4.381000000    -3.184000000    -1.951000000
C    -3.224000000    -4.941000000    -2.496000000
O    -4.115000000    -5.789000000    -1.878000000
C    -2.150000000    -5.448000000    -3.194000000
H    -1.856000000    -6.481000000    -3.028000000
C    -1.309000000    -4.569000000    -3.853000000
O    -0.207000000    -5.110000000    -4.428000000
C     0.729000000    -4.391000000    -5.226000000
C     1.953000000    -4.083000000    -4.731000000
H     2.307000000    -4.569000000    -3.826000000
C     0.360000000    -3.912000000    -6.507000000
H    -0.561000000    -4.291000000    -6.943000000
C     1.284000000    -3.243000000    -7.266000000
H     0.984000000    -2.889000000    -8.249000000
C     2.501000000    -2.882000000    -6.659000000
H     3.184000000    -2.316000000    -7.287000000
C     2.817000000    -3.313000000    -5.408000000
O     3.989000000    -2.996000000    -4.794000000
C     4.182000000    -1.868000000    -3.992000000
C     5.288000000    -1.738000000    -3.116000000
H     6.082000000    -2.477000000    -3.059000000
C     5.525000000    -0.551000000    -2.387000000
O     6.639000000    -0.490000000    -1.646000000
C     6.846000000     0.244000000    -0.501000000
C     6.321000000    -0.141000000     0.688000000
H     5.706000000    -1.033000000     0.779000000
C     7.428000000     1.491000000    -0.727000000
H     7.620000000     1.746000000    -1.766000000
C     7.665000000     2.271000000     0.371000000
H     8.086000000     3.269000000     0.456000000
C     7.221000000     1.880000000     1.664000000
H     7.250000000     2.563000000     2.509000000
C     6.449000000     0.709000000     1.782000000
O     5.948000000     0.376000000     3.027000000
C     4.776000000     0.889000000     3.540000000
C     4.596000000     0.692000000     4.850000000
H     5.317000000     0.122000000     5.431000000
C     3.396000000     1.068000000     5.422000000
O     3.097000000     0.590000000     6.682000000
C     1.746000000     0.394000000     7.114000000
C     1.134000000    -0.750000000     6.466000000
H     1.740000000    -1.315000000     5.762000000
C     1.037000000     0.955000000     8.142000000
H     1.551000000     1.721000000     8.718000000
C    -0.272000000     0.582000000     8.529000000
H    -0.779000000     1.181000000     9.282000000
C    -0.920000000    -0.422000000     7.730000000
H    -2.000000000    -0.547000000     7.755000000
C    -0.203000000    -1.073000000     6.715000000
O    -0.782000000    -2.141000000     6.033000000
C    -1.495000000    -2.137000000     4.899000000
C    -1.697000000    -3.324000000     4.282000000
H    -1.354000000    -4.273000000     4.686000000
C    -2.398000000    -3.431000000     3.099000000
O    -2.499000000    -4.645000000     2.419000000
C    -3.557000000    -5.047000000     1.639000000
C    -4.873000000    -4.833000000     2.027000000
H    -5.188000000    -4.460000000     2.998000000
C    -5.971000000    -5.133000000     1.171000000
H    -7.023000000    -5.169000000     1.443000000
C    -5.656000000    -5.450000000    -0.112000000
H    -6.415000000    -5.795000000    -0.810000000
C    -4.340000000    -5.521000000    -0.560000000
C    -3.286000000    -5.305000000     0.340000000
H    -2.284000000    -5.221000000    -0.073000000
C    -0.452000000    -2.604000000    -0.382000000
H    -1.151000000    -3.435000000    -0.332000000
C    -0.940000000    -1.291000000    -0.231000000
H    -1.988000000    -1.021000000    -0.124000000
C    -0.084000000    -0.181000000    -0.236000000
C    -0.748000000     1.189000000    -0.185000000
H    -0.890000000     1.547000000     0.837000000
H    -0.157000000     1.909000000    -0.754000000
H    -1.695000000     1.174000000    -0.729000000
C     1.305000000    -0.394000000    -0.435000000
H     2.025000000     0.418000000    -0.369000000
C     1.813000000    -1.669000000    -0.502000000
H     2.900000000    -1.637000000    -0.493000000
C     0.957000000    -2.790000000    -0.529000000
C     1.509000000    -4.151000000    -0.740000000
O     2.691000000    -4.287000000    -0.954000000
O     0.818000000    -5.143000000    -0.487000000
O    -2.438000000    -8.956000000    -1.431000000
H    -2.757000000    -8.333000000    -2.084000000
H    -1.619000000    -8.573000000    -1.115000000
O     4.224000000    -3.286000000     1.186000000
H     5.114000000    -3.479000000     0.893000000
H     3.691000000    -3.353000000     0.394000000
O    -0.619000000    -7.258000000    -0.212000000
H    -0.127000000    -6.460000000    -0.401000000
H     0.041000000    -7.880000000     0.095000000
O     1.250000000    -1.185000000     2.945000000
H     0.362000000    -0.828000000     2.960000000
H     1.389000000    -1.443000000     2.034000000
O    -0.358000000    -7.352000000     3.832000000
H     0.046000000    -8.077000000     3.355000000
H    -0.285000000    -6.604000000     3.239000000
O     5.331000000   -10.186000000    -0.764000000
H     4.902000000   -10.693000000    -1.454000000
H     5.211000000    -9.274000000    -1.027000000
O     3.362000000    -5.254000000     4.429000000
H     3.213000000    -4.312000000     4.342000000
H     2.485000000    -5.637000000     4.431000000
O     4.866000000    -4.899000000    -2.451000000
H     5.370000000    -4.275000000    -1.929000000
H     3.987000000    -4.874000000    -2.072000000
O    -2.943000000    -8.234000000     1.413000000
H    -2.429000000    -7.688000000     0.817000000
H    -3.499000000    -8.758000000     0.836000000
O     3.511000000    -2.425000000     3.729000000
H     2.716000000    -1.908000000     3.599000000
H     3.776000000    -2.682000000     2.846000000
O     2.500000000    -7.500000000     0.382000000
H     2.915000000    -7.782000000     1.197000000
H     2.166000000    -6.624000000     0.574000000
O     6.980000000    -6.211000000    -4.186000000
H     6.202000000    -5.914000000    -3.715000000
H     6.934000000    -7.166000000    -4.149000000
O     6.370000000    -3.672000000    -0.646000000
H     6.826000000    -3.176000000    -1.326000000
H     7.051000000    -3.888000000    -0.010000000
O     7.061000000    -7.804000000     0.734000000
H     6.379000000    -7.712000000     0.068000000
H     6.727000000    -7.315000000     1.487000000
O     0.425000000    -5.157000000     2.244000000
H     0.250000000    -4.219000000     2.164000000
H     0.558000000    -5.454000000     1.343000000
O     4.919000000    -7.225000000    -0.783000000
H     4.046000000    -7.372000000    -0.420000000
H     4.840000000    -6.408000000    -1.276000000
O     5.844000000    -5.691000000     2.709000000
H     6.467000000    -5.284000000     2.108000000
H     5.215000000    -4.997000000     2.909000000
O     4.171000000    -7.557000000    -5.815000000
H     4.257000000    -7.993000000    -4.968000000
H     3.311000000    -7.826000000    -6.137000000
O     1.688000000    -9.747000000    -1.083000000
H     2.157000000    -9.117000000    -0.535000000
H     1.529000000    -9.279000000    -1.903000000
