218
-1490.80864
C     4.472000000     0.522000000    -3.309000000
H     4.832000000     1.544000000    -3.231000000
C     3.123000000     0.236000000    -3.555000000
C     2.763000000    -1.129000000    -3.565000000
H     1.693000000    -1.307000000    -3.627000000
C     2.040000000     1.254000000    -3.377000000
O     2.499000000     2.590000000    -3.366000000
H     1.474000000     1.115000000    -2.444000000
O     1.145000000     1.123000000    -4.493000000
C    -0.191000000     1.217000000    -4.387000000
C    -0.944000000     0.074000000    -4.341000000
H    -0.471000000    -0.898000000    -4.455000000
C    -2.351000000     0.161000000    -4.063000000
O    -3.003000000    -1.016000000    -3.912000000
C    -2.914000000     1.402000000    -3.807000000
C    -4.296000000     1.596000000    -3.276000000
H    -4.596000000     2.622000000    -3.498000000
C    -4.456000000     1.258000000    -1.787000000
C    -4.328000000     2.354000000    -0.894000000
H    -4.272000000     3.390000000    -1.219000000
H    -5.073000000     1.011000000    -3.772000000
C    -2.122000000     2.570000000    -3.883000000
H    -2.553000000     3.558000000    -3.740000000
C    -0.764000000     2.484000000    -4.143000000
C     0.036000000     3.781000000    -4.099000000
H    -0.607000000     4.647000000    -4.271000000
H     0.724000000     3.917000000    -4.936000000
C     0.653000000     3.924000000    -2.751000000
C    -0.002000000     4.566000000    -1.694000000
H    -0.937000000     5.077000000    -1.907000000
C     1.923000000     3.380000000    -2.545000000
C     2.618000000     3.495000000    -1.343000000
H     3.572000000     2.975000000    -1.302000000
C     1.956000000     4.128000000    -0.281000000
O     2.502000000     4.094000000     0.964000000
C     1.969000000     3.134000000     1.882000000
C     3.117000000     2.346000000     2.554000000
C     2.875000000     1.648000000     3.756000000
H     1.951000000     1.771000000     4.314000000
C     4.435000000     2.245000000     1.957000000
H     4.625000000     2.901000000     1.111000000
O     1.204000000     3.789000000     2.843000000
H     1.313000000     2.468000000     1.302000000
C     0.651000000     4.606000000    -0.452000000
C     0.007000000     5.381000000     0.656000000
H    -0.633000000     6.084000000     0.120000000
H     0.719000000     5.924000000     1.281000000
C    -0.784000000     4.536000000     1.581000000
C    -2.179000000     4.390000000     1.384000000
H    -2.533000000     4.860000000     0.470000000
C    -0.188000000     3.791000000     2.636000000
C    -1.015000000     2.965000000     3.418000000
H    -0.692000000     2.327000000     4.237000000
C    -2.370000000     2.785000000     3.105000000
O    -2.969000000     1.679000000     3.696000000
C    -3.045000000     0.496000000     2.956000000
C    -2.770000000    -0.708000000     3.765000000
C    -1.967000000    -0.676000000     4.876000000
H    -1.561000000     0.285000000     5.183000000
C    -3.205000000    -1.942000000     3.297000000
H    -3.801000000    -2.080000000     2.399000000
O    -4.297000000     0.455000000     2.318000000
H    -2.357000000     0.555000000     2.100000000
C    -2.966000000     3.463000000     2.079000000
C    -4.339000000     3.236000000     1.569000000
H    -4.714000000     4.171000000     1.148000000
H    -5.085000000     2.960000000     2.318000000
C    -4.402000000     2.123000000     0.499000000
C    -4.452000000     0.792000000     0.981000000
C    -4.452000000    -0.288000000     0.045000000
H    -4.408000000    -1.308000000     0.419000000
C    -4.547000000    -0.038000000    -1.315000000
O    -4.480000000    -1.153000000    -2.075000000
C    -3.209000000    -1.562000000    -2.634000000
H    -2.408000000    -1.144000000    -2.007000000
C    -3.035000000    -3.078000000    -2.620000000
C    -2.016000000    -3.599000000    -3.411000000
H    -1.555000000    -2.963000000    -4.162000000
C    -3.693000000    -3.848000000    -1.666000000
H    -4.412000000    -3.396000000    -0.988000000
C    -3.403000000    -5.217000000    -1.642000000
O    -3.992000000    -6.004000000    -0.687000000
C    -2.541000000    -5.788000000    -2.563000000
H    -2.232000000    -6.827000000    -2.486000000
C    -1.764000000    -5.012000000    -3.446000000
O    -0.838000000    -5.607000000    -4.346000000
C     0.286000000    -4.971000000    -4.817000000
C     1.289000000    -4.606000000    -3.891000000
H     1.148000000    -4.847000000    -2.841000000
C     0.457000000    -4.655000000    -6.149000000
H    -0.386000000    -4.828000000    -6.812000000
C     1.546000000    -3.979000000    -6.590000000
H     1.587000000    -3.586000000    -7.603000000
C     2.609000000    -3.671000000    -5.715000000
H     3.493000000    -3.168000000    -6.100000000
C     2.417000000    -3.935000000    -4.364000000
O     3.364000000    -3.507000000    -3.453000000
C     3.657000000    -2.146000000    -3.359000000
C     4.967000000    -1.882000000    -3.105000000
H     5.650000000    -2.702000000    -2.896000000
C     5.324000000    -0.519000000    -2.934000000
O     6.620000000    -0.243000000    -2.544000000
C     6.888000000     0.691000000    -1.564000000
C     6.403000000     0.628000000    -0.271000000
H     5.642000000    -0.118000000    -0.058000000
C     7.882000000     1.643000000    -1.904000000
H     8.302000000     1.721000000    -2.904000000
C     8.421000000     2.502000000    -0.907000000
H     9.180000000     3.252000000    -1.118000000
C     7.887000000     2.439000000     0.393000000
H     8.309000000     3.092000000     1.153000000
C     6.907000000     1.474000000     0.718000000
O     6.628000000     1.242000000     2.036000000
C     5.376000000     1.438000000     2.566000000
C     5.067000000     0.836000000     3.784000000
H     5.900000000     0.278000000     4.206000000
C     3.818000000     0.875000000     4.333000000
O     3.532000000     0.281000000     5.537000000
C     2.338000000     0.313000000     6.265000000
C     1.341000000    -0.625000000     6.013000000
H     1.477000000    -1.298000000     5.171000000
C     2.241000000     1.075000000     7.386000000
H     3.068000000     1.642000000     7.805000000
C     1.131000000     1.026000000     8.260000000
H     1.051000000     1.689000000     9.118000000
C     0.150000000     0.063000000     8.090000000
H    -0.715000000    -0.027000000     8.743000000
C     0.294000000    -0.735000000     6.947000000
O    -0.671000000    -1.649000000     6.697000000
C    -1.482000000    -1.761000000     5.545000000
C    -1.958000000    -2.952000000     5.068000000
H    -1.631000000    -3.900000000     5.488000000
C    -2.834000000    -3.068000000     4.015000000
O    -3.259000000    -4.408000000     3.764000000
C    -4.116000000    -4.762000000     2.703000000
C    -5.489000000    -4.854000000     2.927000000
H    -5.897000000    -4.540000000     3.884000000
C    -6.396000000    -5.165000000     1.872000000
H    -7.457000000    -5.123000000     2.107000000
C    -5.870000000    -5.460000000     0.616000000
H    -6.586000000    -5.871000000    -0.091000000
C    -4.490000000    -5.573000000     0.450000000
C    -3.615000000    -5.294000000     1.502000000
H    -2.543000000    -5.344000000     1.329000000
C    -0.346000000    -2.627000000     0.117000000
H    -1.025000000    -3.429000000     0.394000000
C    -0.884000000    -1.285000000     0.067000000
H    -1.949000000    -1.204000000     0.267000000
C    -0.051000000    -0.226000000    -0.226000000
C    -0.584000000     1.168000000    -0.351000000
H    -0.026000000     1.935000000     0.190000000
H    -0.557000000     1.438000000    -1.409000000
H    -1.656000000     1.107000000    -0.151000000
C     1.328000000    -0.459000000    -0.403000000
H     2.099000000     0.298000000    -0.527000000
C     1.836000000    -1.736000000    -0.308000000
H     2.902000000    -1.867000000    -0.474000000
C     0.962000000    -2.821000000    -0.054000000
C     1.555000000    -4.173000000    -0.111000000
O     2.762000000    -4.225000000    -0.206000000
O     0.876000000    -5.214000000     0.113000000
O     3.720000000    -4.327000000     2.929000000
H     4.620000000    -4.643000000     3.007000000
H     3.503000000    -4.447000000     2.004000000
O     5.158000000    -7.178000000     1.730000000
H     4.211000000    -7.224000000     1.857000000
H     5.357000000    -7.910000000     1.145000000
O     0.043000000    -7.267000000    -1.400000000
H     0.176000000    -6.611000000    -0.716000000
H     0.673000000    -7.034000000    -2.082000000
O     1.118000000    -3.141000000     3.311000000
H     1.174000000    -2.785000000     2.424000000
H     1.985000000    -3.511000000     3.474000000
O    -1.599000000    -6.825000000     5.052000000
H    -2.377000000    -7.348000000     4.857000000
H    -1.598000000    -6.140000000     4.383000000
O    -2.167000000    -8.146000000    -0.112000000
H    -2.838000000    -8.474000000    -0.712000000
H    -1.347000000    -8.240000000    -0.596000000
O     5.390000000    -3.459000000     0.234000000
H     4.454000000    -3.658000000     0.225000000
H     5.524000000    -2.979000000     1.051000000
O    -0.494000000    -5.121000000     2.558000000
H    -0.209000000    -4.376000000     3.088000000
H    -0.157000000    -4.933000000     1.681000000
O     2.400000000    -7.332000000     1.077000000
H     2.228000000    -6.504000000     0.630000000
H     1.533000000    -7.660000000     1.316000000
O     8.287000000    -4.091000000     0.414000000
H     8.533000000    -4.107000000    -0.511000000
H     7.345000000    -4.261000000     0.415000000
O     2.375000000   -11.028000000     0.042000000
H     2.535000000   -10.087000000    -0.025000000
H     2.508000000   -11.358000000    -0.846000000
O    -0.726000000    -7.861000000     2.262000000
H    -0.645000000    -6.916000000     2.395000000
H    -1.285000000    -7.947000000     1.490000000
O     3.712000000    -8.490000000    -1.145000000
H     3.888000000    -7.797000000    -1.780000000
H     3.170000000    -8.071000000    -0.476000000
O     2.226000000    -7.168000000     4.506000000
H     2.123000000    -6.218000000     4.566000000
H     3.172000000    -7.308000000     4.529000000
O     6.491000000    -5.085000000     3.064000000
H     6.075000000    -5.875000000     2.720000000
H     7.115000000    -5.406000000     3.715000000
O     5.313000000    -5.977000000    -4.376000000
H     5.030000000    -6.804000000    -4.765000000
H     4.867000000    -5.945000000    -3.530000000
O     4.086000000    -5.924000000    -1.934000000
H     3.480000000    -5.187000000    -1.853000000
H     4.730000000    -5.782000000    -1.240000000
O     6.767000000    -2.438000000     2.648000000
H     6.519000000    -3.345000000     2.825000000
H     7.415000000    -2.499000000     1.947000000
O     1.396000000    -8.549000000    -3.603000000
H     0.999000000    -8.877000000    -2.796000000
H     2.227000000    -9.019000000    -3.669000000
