218
-1486.28552
C     4.845000000     0.824000000    -2.253000000
H     5.290000000     1.559000000    -1.586000000
C     3.699000000     1.048000000    -2.923000000
C     3.215000000     0.168000000    -3.908000000
H     2.317000000     0.452000000    -4.451000000
C     2.700000000     2.118000000    -2.519000000
O     3.406000000     3.112000000    -1.777000000
H     2.022000000     1.566000000    -1.851000000
O     1.937000000     2.668000000    -3.671000000
C     0.592000000     2.938000000    -3.525000000
C    -0.323000000     2.092000000    -4.157000000
H     0.056000000     1.324000000    -4.826000000
C    -1.688000000     2.188000000    -3.831000000
O    -2.605000000     1.242000000    -4.262000000
C    -2.115000000     3.264000000    -3.010000000
C    -3.543000000     3.370000000    -2.584000000
H    -3.757000000     4.430000000    -2.436000000
C    -3.833000000     2.434000000    -1.367000000
C    -3.796000000     3.044000000    -0.117000000
H    -3.593000000     4.109000000    -0.041000000
H    -4.139000000     2.996000000    -3.420000000
C    -1.159000000     4.205000000    -2.577000000
H    -1.486000000     4.965000000    -1.872000000
C     0.161000000     4.018000000    -2.697000000
C     1.166000000     5.039000000    -2.192000000
H     0.651000000     6.002000000    -2.197000000
H     1.974000000     5.146000000    -2.919000000
C     1.655000000     4.540000000    -0.826000000
C     0.950000000     4.843000000     0.365000000
H     0.072000000     5.478000000     0.450000000
C     2.775000000     3.701000000    -0.712000000
C     3.179000000     3.135000000     0.493000000
H     3.970000000     2.389000000     0.470000000
C     2.470000000     3.482000000     1.676000000
O     2.742000000     2.781000000     2.844000000
C     1.951000000     1.675000000     3.232000000
C     2.682000000     0.476000000     3.521000000
C     2.111000000    -0.456000000     4.370000000
H     1.158000000    -0.273000000     4.860000000
C     3.778000000     0.078000000     2.776000000
H     4.240000000     0.711000000     2.022000000
O     1.158000000     2.201000000     4.341000000
H     1.160000000     1.482000000     2.492000000
C     1.391000000     4.386000000     1.592000000
C     0.584000000     4.699000000     2.918000000
H    -0.064000000     5.569000000     2.787000000
H     1.209000000     4.959000000     3.774000000
C    -0.453000000     3.667000000     3.230000000
C    -1.750000000     3.817000000     2.682000000
H    -1.924000000     4.591000000     1.939000000
C    -0.138000000     2.509000000     3.965000000
C    -1.179000000     1.606000000     4.238000000
H    -0.988000000     0.619000000     4.650000000
C    -2.394000000     1.713000000     3.629000000
O    -3.263000000     0.643000000     3.839000000
C    -3.486000000    -0.239000000     2.764000000
C    -3.364000000    -1.678000000     3.178000000
C    -3.310000000    -2.083000000     4.560000000
H    -3.384000000    -1.320000000     5.331000000
C    -3.203000000    -2.643000000     2.256000000
H    -3.216000000    -2.257000000     1.240000000
O    -4.693000000     0.091000000     1.969000000
H    -2.666000000    -0.045000000     2.056000000
C    -2.706000000     2.883000000     2.937000000
C    -4.082000000     3.070000000     2.344000000
H    -4.326000000     4.133000000     2.292000000
H    -4.796000000     2.599000000     3.023000000
C    -4.134000000     2.300000000     1.043000000
C    -4.514000000     1.002000000     0.892000000
C    -4.480000000     0.378000000    -0.346000000
H    -4.704000000    -0.679000000    -0.462000000
C    -4.100000000     1.117000000    -1.512000000
O    -4.082000000     0.465000000    -2.742000000
C    -2.814000000     0.189000000    -3.321000000
H    -2.107000000     0.254000000    -2.481000000
C    -2.717000000    -1.129000000    -3.925000000
C    -1.818000000    -1.382000000    -4.985000000
H    -1.112000000    -0.641000000    -5.351000000
C    -3.406000000    -2.221000000    -3.399000000
H    -4.073000000    -2.059000000    -2.556000000
C    -3.136000000    -3.517000000    -3.807000000
O    -3.751000000    -4.663000000    -3.266000000
C    -2.287000000    -3.744000000    -4.881000000
H    -2.072000000    -4.788000000    -5.091000000
C    -1.697000000    -2.706000000    -5.541000000
O    -0.801000000    -2.909000000    -6.608000000
C     0.394000000    -2.234000000    -6.745000000
C     1.400000000    -2.415000000    -5.771000000
H     1.294000000    -3.083000000    -4.919000000
C     0.511000000    -1.381000000    -7.878000000
H    -0.282000000    -1.359000000    -8.620000000
C     1.769000000    -0.790000000    -8.088000000
H     2.006000000    -0.241000000    -8.996000000
C     2.775000000    -0.991000000    -7.139000000
H     3.720000000    -0.469000000    -7.266000000
C     2.594000000    -1.792000000    -6.027000000
O     3.587000000    -1.893000000    -5.089000000
C     3.961000000    -0.953000000    -4.192000000
C     5.122000000    -1.172000000    -3.568000000
H     5.807000000    -1.936000000    -3.927000000
C     5.613000000    -0.298000000    -2.620000000
O     6.829000000    -0.511000000    -2.026000000
C     6.995000000    -0.276000000    -0.636000000
C     6.207000000    -0.968000000     0.326000000
H     5.516000000    -1.710000000    -0.065000000
C     7.925000000     0.691000000    -0.218000000
H     8.501000000     1.178000000    -1.001000000
C     8.015000000     0.874000000     1.162000000
H     8.800000000     1.534000000     1.522000000
C     7.206000000     0.262000000     2.073000000
H     7.194000000     0.581000000     3.112000000
C     6.283000000    -0.696000000     1.645000000
O     5.642000000    -1.490000000     2.503000000
C     4.435000000    -1.111000000     3.050000000
C     3.904000000    -2.010000000     4.004000000
H     4.340000000    -2.996000000     4.142000000
C     2.721000000    -1.700000000     4.595000000
O     2.106000000    -2.695000000     5.315000000
C     0.991000000    -2.581000000     6.125000000
C    -0.207000000    -3.179000000     5.716000000
H    -0.242000000    -3.709000000     4.768000000
C     1.093000000    -1.960000000     7.322000000
H     2.095000000    -1.610000000     7.557000000
C     0.041000000    -1.876000000     8.152000000
H     0.106000000    -1.296000000     9.070000000
C    -1.233000000    -2.428000000     7.719000000
H    -2.152000000    -2.407000000     8.298000000
C    -1.321000000    -3.223000000     6.581000000
O    -2.540000000    -3.748000000     6.151000000
C    -3.008000000    -3.417000000     4.895000000
C    -3.061000000    -4.367000000     3.889000000
H    -2.845000000    -5.382000000     4.211000000
C    -3.305000000    -4.007000000     2.616000000
O    -3.374000000    -4.964000000     1.606000000
C    -4.161000000    -4.783000000     0.441000000
C    -5.593000000    -4.712000000     0.471000000
H    -5.977000000    -4.679000000     1.487000000
C    -6.383000000    -4.668000000    -0.656000000
H    -7.467000000    -4.750000000    -0.660000000
C    -5.741000000    -4.583000000    -1.934000000
H    -6.212000000    -4.591000000    -2.914000000
C    -4.325000000    -4.701000000    -2.018000000
C    -3.556000000    -4.726000000    -0.831000000
H    -2.484000000    -4.751000000    -1.004000000
C     0.013000000    -2.376000000    -0.991000000
H    -0.536000000    -3.262000000    -1.299000000
C    -0.653000000    -1.289000000    -0.510000000
H    -1.713000000    -1.355000000    -0.277000000
C     0.077000000    -0.157000000    -0.176000000
C    -0.607000000     1.129000000     0.190000000
H     0.197000000     1.867000000     0.149000000
H    -1.294000000     1.416000000    -0.608000000
H    -1.028000000     1.057000000     1.195000000
C     1.444000000    -0.204000000    -0.173000000
H     2.099000000     0.604000000     0.144000000
C     2.099000000    -1.235000000    -0.744000000
H     3.174000000    -1.122000000    -0.858000000
C     1.392000000    -2.340000000    -1.161000000
C     2.084000000    -3.473000000    -1.885000000
O     3.310000000    -3.635000000    -1.773000000
O     1.523000000    -4.283000000    -2.595000000
O     2.748000000    -6.521000000    -1.057000000
H     2.438000000    -5.710000000    -1.459000000
H     3.616000000    -6.660000000    -1.437000000
O    -0.473000000    -5.977000000    -1.791000000
H    -0.290000000    -6.063000000    -0.855000000
H     0.108000000    -5.276000000    -2.086000000
O     1.006000000    -2.847000000     1.993000000
H     1.051000000    -2.610000000     1.066000000
H     0.910000000    -2.011000000     2.449000000
O    -0.505000000    -6.444000000     3.000000000
H    -0.816000000    -5.539000000     3.029000000
H     0.000000000    -6.497000000     2.188000000
O     6.640000000    -4.340000000    -5.343000000
H     6.496000000    -5.257000000    -5.577000000
H     6.234000000    -4.246000000    -4.482000000
O     3.635000000    -4.968000000    -4.472000000
H     3.207000000    -4.582000000    -3.708000000
H     3.968000000    -4.218000000    -4.964000000
O     6.188000000    -5.788000000     0.644000000
H     5.814000000    -6.158000000     1.444000000
H     6.808000000    -6.450000000     0.341000000
O     1.273000000    -6.331000000    -4.639000000
H     0.923000000    -6.293000000    -3.749000000
H     2.014000000    -5.725000000    -4.631000000
O     5.834000000    -4.146000000    -2.643000000
H     6.382000000    -3.610000000    -2.069000000
H     4.949000000    -4.045000000    -2.291000000
O     1.624000000    -9.309000000    -2.069000000
H     0.697000000    -9.071000000    -2.053000000
H     2.045000000    -8.669000000    -1.495000000
O     3.110000000    -5.069000000     3.006000000
H     2.443000000    -5.615000000     2.590000000
H     3.340000000    -4.422000000     2.339000000
O     0.713000000    -5.254000000     0.710000000
H     1.497000000    -5.686000000     0.371000000
H     1.034000000    -4.430000000     1.077000000
O     4.953000000    -6.756000000    -2.783000000
H     5.585000000    -6.162000000    -2.378000000
H     4.704000000    -6.322000000    -3.599000000
O     2.890000000    -7.664000000     1.539000000
H     3.760000000    -8.055000000     1.620000000
H     2.875000000    -7.293000000     0.657000000
O     4.058000000    -3.881000000     0.665000000
H     4.921000000    -4.269000000     0.516000000
H     3.703000000    -3.743000000    -0.214000000
O     0.826000000    -6.724000000    -7.316000000
H     1.015000000    -6.715000000    -6.378000000
H    -0.054000000    -6.356000000    -7.387000000
O     4.393000000    -9.421000000    -3.582000000
H     4.530000000    -8.549000000    -3.213000000
H     3.537000000    -9.370000000    -4.007000000
O     7.639000000    -3.979000000    -0.558000000
H     7.267000000    -4.664000000    -0.002000000
H     8.342000000    -4.416000000    -1.039000000
O     1.696000000    -9.277000000    -4.677000000
H     1.326000000    -8.411000000    -4.850000000
H     1.660000000    -9.366000000    -3.725000000
