218
-1489.95326
C     4.163000000    -0.061000000    -2.599000000
H     4.523000000     0.588000000    -1.805000000
C     3.177000000     0.390000000    -3.486000000
C     2.700000000    -0.488000000    -4.423000000
H     1.943000000    -0.186000000    -5.142000000
C     2.405000000     1.690000000    -3.273000000
O     3.293000000     2.729000000    -2.764000000
H     1.775000000     1.505000000    -2.391000000
O     1.603000000     1.989000000    -4.386000000
C     0.266000000     2.186000000    -4.109000000
C    -0.721000000     1.272000000    -4.518000000
H    -0.441000000     0.380000000    -5.072000000
C    -2.028000000     1.443000000    -3.987000000
O    -2.885000000     0.401000000    -4.127000000
C    -2.345000000     2.598000000    -3.257000000
C    -3.762000000     3.030000000    -2.862000000
H    -3.886000000     4.108000000    -2.739000000
C    -3.990000000     2.506000000    -1.482000000
C    -3.674000000     3.281000000    -0.335000000
H    -3.488000000     4.350000000    -0.402000000
H    -4.510000000     2.683000000    -3.579000000
C    -1.403000000     3.628000000    -3.014000000
H    -1.593000000     4.575000000    -2.514000000
C    -0.054000000     3.368000000    -3.397000000
C     0.977000000     4.409000000    -3.042000000
H     0.495000000     5.388000000    -2.998000000
H     1.687000000     4.514000000    -3.865000000
C     1.645000000     4.188000000    -1.774000000
C     1.115000000     4.710000000    -0.602000000
H     0.260000000     5.378000000    -0.664000000
C     2.801000000     3.422000000    -1.679000000
C     3.383000000     3.087000000    -0.421000000
H     4.127000000     2.300000000    -0.327000000
C     2.875000000     3.682000000     0.732000000
O     3.382000000     3.303000000     1.974000000
C     2.577000000     2.284000000     2.660000000
C     3.452000000     1.266000000     3.299000000
C     3.043000000     0.613000000     4.469000000
H     2.089000000     0.906000000     4.900000000
C     4.611000000     0.917000000     2.685000000
H     4.817000000     1.267000000     1.676000000
O     1.808000000     2.957000000     3.627000000
H     1.855000000     1.806000000     1.982000000
C     1.708000000     4.452000000     0.683000000
C     1.099000000     5.062000000     1.966000000
H     0.672000000     6.024000000     1.675000000
H     1.942000000     5.170000000     2.653000000
C     0.059000000     4.155000000     2.588000000
C    -1.304000000     4.379000000     2.262000000
H    -1.571000000     5.267000000     1.695000000
C     0.473000000     3.125000000     3.484000000
C    -0.455000000     2.233000000     3.906000000
H    -0.110000000     1.286000000     4.313000000
C    -1.772000000     2.371000000     3.550000000
O    -2.575000000     1.309000000     3.825000000
C    -2.802000000     0.431000000     2.777000000
C    -2.646000000    -1.005000000     3.206000000
C    -1.485000000    -1.402000000     3.861000000
H    -0.635000000    -0.758000000     4.070000000
C    -3.725000000    -1.883000000     2.927000000
H    -4.575000000    -1.582000000     2.319000000
O    -4.134000000     0.667000000     2.278000000
H    -2.103000000     0.546000000     1.935000000
C    -2.235000000     3.454000000     2.726000000
C    -3.642000000     3.547000000     2.148000000
H    -3.842000000     4.573000000     1.831000000
H    -4.335000000     3.397000000     2.979000000
C    -3.909000000     2.686000000     0.950000000
C    -4.305000000     1.361000000     1.090000000
C    -4.549000000     0.593000000    -0.034000000
H    -4.796000000    -0.463000000     0.047000000
C    -4.371000000     1.173000000    -1.327000000
O    -4.327000000     0.169000000    -2.273000000
C    -3.110000000    -0.303000000    -2.889000000
H    -2.246000000    -0.138000000    -2.229000000
C    -3.260000000    -1.772000000    -3.101000000
C    -2.511000000    -2.337000000    -4.171000000
H    -1.929000000    -1.736000000    -4.865000000
C    -3.934000000    -2.626000000    -2.246000000
H    -4.399000000    -2.126000000    -1.400000000
C    -3.778000000    -4.018000000    -2.317000000
O    -4.401000000    -4.898000000    -1.396000000
C    -3.054000000    -4.552000000    -3.342000000
H    -3.001000000    -5.635000000    -3.268000000
C    -2.389000000    -3.733000000    -4.259000000
O    -1.653000000    -4.381000000    -5.225000000
C    -0.646000000    -3.747000000    -5.898000000
C     0.551000000    -3.423000000    -5.271000000
H     0.662000000    -3.578000000    -4.201000000
C    -0.802000000    -3.482000000    -7.283000000
H    -1.704000000    -3.695000000    -7.852000000
C     0.266000000    -2.962000000    -8.057000000
H     0.231000000    -2.912000000    -9.143000000
C     1.477000000    -2.731000000    -7.441000000
H     2.385000000    -2.525000000    -8.002000000
C     1.632000000    -2.863000000    -5.972000000
O     2.846000000    -2.751000000    -5.396000000
C     3.180000000    -1.768000000    -4.501000000
C     4.094000000    -2.247000000    -3.617000000
H     4.558000000    -3.218000000    -3.770000000
C     4.620000000    -1.367000000    -2.624000000
O     5.528000000    -1.898000000    -1.753000000
C     6.321000000    -1.096000000    -0.940000000
C     6.143000000    -1.230000000     0.442000000
H     5.393000000    -1.941000000     0.779000000
C     7.412000000    -0.488000000    -1.462000000
H     7.503000000    -0.381000000    -2.540000000
C     8.269000000     0.227000000    -0.594000000
H     9.092000000     0.754000000    -1.072000000
C     8.028000000     0.235000000     0.816000000
H     8.686000000     0.851000000     1.423000000
C     6.943000000    -0.490000000     1.319000000
O     6.671000000    -0.502000000     2.632000000
C     5.431000000    -0.057000000     3.231000000
C     5.077000000    -0.701000000     4.442000000
H     5.795000000    -1.369000000     4.909000000
C     3.890000000    -0.318000000     5.057000000
O     3.533000000    -0.750000000     6.274000000
C     2.212000000    -1.115000000     6.654000000
C     1.379000000    -1.737000000     5.720000000
H     1.709000000    -1.895000000     4.696000000
C     1.729000000    -0.900000000     7.919000000
H     2.327000000    -0.491000000     8.728000000
C     0.400000000    -1.257000000     8.283000000
H     0.042000000    -1.063000000     9.291000000
C    -0.390000000    -1.961000000     7.427000000
H    -1.350000000    -2.362000000     7.740000000
C     0.114000000    -2.203000000     6.142000000
O    -0.413000000    -3.073000000     5.236000000
C    -1.448000000    -2.696000000     4.382000000
C    -2.550000000    -3.526000000     4.244000000
H    -2.599000000    -4.452000000     4.812000000
C    -3.658000000    -3.174000000     3.504000000
O    -4.736000000    -3.968000000     3.375000000
C    -5.321000000    -4.119000000     2.048000000
C    -6.489000000    -3.454000000     1.915000000
H    -6.948000000    -2.881000000     2.716000000
C    -6.974000000    -3.245000000     0.591000000
H    -7.953000000    -2.793000000     0.452000000
C    -6.298000000    -3.809000000    -0.488000000
H    -6.749000000    -3.750000000    -1.476000000
C    -5.088000000    -4.439000000    -0.299000000
C    -4.557000000    -4.538000000     0.959000000
H    -3.662000000    -5.121000000     1.157000000
C    -0.414000000    -2.416000000    -0.492000000
H    -1.090000000    -3.263000000    -0.584000000
C    -0.844000000    -1.108000000    -0.233000000
H    -1.893000000    -0.835000000    -0.152000000
C     0.089000000    -0.058000000    -0.209000000
C    -0.449000000     1.329000000    -0.120000000
H    -0.132000000     2.019000000    -0.904000000
H    -1.526000000     1.436000000     0.026000000
H    -0.004000000     1.854000000     0.727000000
C     1.477000000    -0.285000000    -0.260000000
H     2.154000000     0.558000000    -0.150000000
C     1.893000000    -1.616000000    -0.502000000
H     2.958000000    -1.803000000    -0.619000000
C     0.950000000    -2.704000000    -0.593000000
C     1.350000000    -4.126000000    -0.957000000
O     2.525000000    -4.337000000    -1.213000000
O     0.611000000    -5.099000000    -0.839000000
O     3.031000000    -6.987000000     0.449000000
H     3.473000000    -6.142000000     0.536000000
H     2.268000000    -6.803000000    -0.100000000
O     1.708000000   -11.005000000     0.722000000
H     1.850000000   -11.484000000     1.538000000
H     1.533000000   -10.106000000     1.000000000
O     2.531000000    -9.974000000    -2.148000000
H     2.108000000    -9.385000000    -1.522000000
H     1.962000000   -10.744000000    -2.173000000
O    -1.100000000    -5.501000000     1.077000000
H    -1.505000000    -4.634000000     1.040000000
H    -0.350000000    -5.440000000     0.484000000
O     2.035000000    -3.343000000     2.758000000
H     1.964000000    -2.829000000     1.953000000
H     2.935000000    -3.671000000     2.753000000
O     4.708000000    -6.351000000    -4.989000000
H     3.945000000    -5.899000000    -4.628000000
H     5.164000000    -6.700000000    -4.223000000
O     1.677000000    -7.706000000     3.797000000
H     1.526000000    -6.761000000     3.795000000
H     0.863000000    -8.080000000     3.459000000
O    -0.117000000    -8.129000000     1.306000000
H     0.314000000    -8.035000000     0.457000000
H    -0.530000000    -7.279000000     1.460000000
O     4.274000000    -8.409000000     2.414000000
H     4.131000000    -8.192000000     1.493000000
H     3.597000000    -7.921000000     2.882000000
O     2.787000000    -5.078000000    -3.703000000
H     2.685000000    -4.949000000    -2.760000000
H     2.577000000    -4.226000000    -4.086000000
O     4.886000000    -4.734000000    -0.020000000
H     5.639000000    -4.699000000    -0.610000000
H     4.155000000    -4.409000000    -0.545000000
O     0.409000000    -7.551000000    -1.716000000
H     0.529000000    -6.609000000    -1.599000000
H     0.089000000    -7.641000000    -2.614000000
O     6.887000000    -4.553000000    -2.082000000
H     7.311000000    -4.010000000    -2.746000000
H     6.300000000    -5.124000000    -2.578000000
O     5.286000000    -7.513000000    -1.816000000
H     5.469000000    -8.436000000    -1.643000000
H     4.743000000    -7.234000000    -1.079000000
O     0.119000000    -5.476000000     3.597000000
H    -0.262000000    -5.557000000     2.723000000
H     0.463000000    -4.583000000     3.626000000
O     2.116000000    -8.208000000    -4.030000000
H     2.456000000    -8.842000000    -3.399000000
H     2.179000000    -7.365000000    -3.580000000
O     1.114000000    -7.285000000    -6.353000000
H     0.764000000    -6.396000000    -6.292000000
H     1.202000000    -7.571000000    -5.444000000
O     4.677000000    -4.490000000     2.819000000
H     5.565000000    -4.334000000     3.141000000
H     4.757000000    -4.446000000     1.866000000
O    -0.968000000    -7.577000000    -4.113000000
H    -1.468000000    -7.176000000    -4.824000000
H    -1.264000000    -8.487000000    -4.096000000
