218
-1472.45980
C     4.557000000    -0.617000000    -1.612000000
H     4.695000000     0.198000000    -0.906000000
C     3.970000000    -0.446000000    -2.843000000
C     3.818000000    -1.493000000    -3.709000000
H     3.186000000    -1.317000000    -4.576000000
C     3.199000000     0.911000000    -2.983000000
O     3.922000000     2.067000000    -2.563000000
H     2.274000000     0.935000000    -2.388000000
O     2.711000000     1.031000000    -4.260000000
C     1.447000000     1.387000000    -4.394000000
C     0.522000000     0.361000000    -4.475000000
H     0.851000000    -0.654000000    -4.684000000
C    -0.843000000     0.640000000    -4.574000000
O    -1.699000000    -0.434000000    -4.693000000
C    -1.290000000     1.924000000    -4.412000000
C    -2.764000000     2.244000000    -4.309000000
H    -2.880000000     3.289000000    -4.603000000
C    -3.336000000     1.979000000    -2.918000000
C    -3.406000000     3.016000000    -1.962000000
H    -3.106000000     3.993000000    -2.332000000
H    -3.304000000     1.689000000    -5.078000000
C    -0.355000000     2.988000000    -4.142000000
H    -0.670000000     3.932000000    -3.705000000
C     1.029000000     2.731000000    -4.281000000
C     1.996000000     3.847000000    -3.861000000
H     1.615000000     4.811000000    -4.205000000
H     2.888000000     3.708000000    -4.476000000
C     2.163000000     3.750000000    -2.347000000
C     1.400000000     4.566000000    -1.464000000
H     0.517000000     5.118000000    -1.775000000
C     3.188000000     2.900000000    -1.790000000
C     3.353000000     2.883000000    -0.396000000
H     3.960000000     2.159000000     0.141000000
C     2.592000000     3.675000000     0.448000000
O     2.764000000     3.646000000     1.826000000
C     1.830000000     2.760000000     2.475000000
C     2.467000000     1.845000000     3.464000000
C     1.703000000     1.017000000     4.370000000
H     0.626000000     1.157000000     4.314000000
C     3.838000000     1.654000000     3.456000000
H     4.523000000     2.130000000     2.759000000
O     0.886000000     3.536000000     3.135000000
H     1.371000000     2.123000000     1.704000000
C     1.626000000     4.517000000    -0.089000000
C     0.859000000     5.412000000     0.869000000
H     0.381000000     6.237000000     0.338000000
H     1.522000000     5.746000000     1.669000000
C    -0.332000000     4.589000000     1.445000000
C    -1.603000000     4.756000000     0.774000000
H    -1.707000000     5.430000000    -0.072000000
C    -0.224000000     3.700000000     2.493000000
C    -1.383000000     3.037000000     2.969000000
H    -1.230000000     2.445000000     3.867000000
C    -2.655000000     3.256000000     2.385000000
O    -3.668000000     2.462000000     2.876000000
C    -3.666000000     1.248000000     2.183000000
C    -4.020000000     0.122000000     3.175000000
C    -3.585000000     0.216000000     4.496000000
H    -3.092000000     1.114000000     4.859000000
C    -4.520000000    -1.063000000     2.688000000
H    -5.010000000    -1.129000000     1.720000000
O    -4.639000000     1.185000000     1.093000000
H    -2.658000000     1.047000000     1.791000000
C    -2.743000000     4.033000000     1.241000000
C    -4.026000000     3.960000000     0.355000000
H    -4.200000000     4.818000000    -0.298000000
H    -4.905000000     3.742000000     0.965000000
C    -3.904000000     2.831000000    -0.656000000
C    -4.247000000     1.512000000    -0.204000000
C    -4.146000000     0.499000000    -1.200000000
H    -4.457000000    -0.510000000    -0.943000000
C    -3.679000000     0.671000000    -2.486000000
O    -3.486000000    -0.437000000    -3.251000000
C    -2.193000000    -0.996000000    -3.481000000
H    -1.462000000    -0.615000000    -2.753000000
C    -2.217000000    -2.476000000    -3.375000000
C    -1.298000000    -3.285000000    -4.065000000
H    -0.547000000    -2.802000000    -4.685000000
C    -3.000000000    -3.088000000    -2.306000000
H    -3.683000000    -2.526000000    -1.674000000
C    -3.041000000    -4.520000000    -2.137000000
O    -3.758000000    -5.171000000    -1.119000000
C    -2.080000000    -5.283000000    -2.865000000
H    -1.839000000    -6.321000000    -2.649000000
C    -1.269000000    -4.638000000    -3.796000000
O    -0.254000000    -5.459000000    -4.334000000
C     0.831000000    -4.913000000    -4.958000000
C     1.934000000    -4.355000000    -4.241000000
H     1.824000000    -4.142000000    -3.181000000
C     0.912000000    -5.125000000    -6.355000000
H     0.048000000    -5.525000000    -6.880000000
C     2.116000000    -4.856000000    -7.048000000
H     2.152000000    -4.933000000    -8.131000000
C     3.229000000    -4.438000000    -6.284000000
H     4.129000000    -4.231000000    -6.857000000
C     3.163000000    -4.169000000    -4.911000000
O     4.262000000    -3.854000000    -4.193000000
C     4.403000000    -2.718000000    -3.388000000
C     4.997000000    -2.935000000    -2.168000000
H     5.353000000    -3.922000000    -1.884000000
C     4.959000000    -1.859000000    -1.229000000
O     5.576000000    -2.035000000     0.017000000
C     6.149000000    -1.053000000     0.821000000
C     5.614000000    -0.792000000     2.062000000
H     4.783000000    -1.383000000     2.439000000
C     7.270000000    -0.345000000     0.399000000
H     7.774000000    -0.668000000    -0.509000000
C     7.780000000     0.656000000     1.194000000
H     8.611000000     1.241000000     0.807000000
C     7.278000000     0.952000000     2.448000000
H     7.855000000     1.647000000     3.052000000
C     6.260000000     0.175000000     2.888000000
O     5.802000000     0.436000000     4.187000000
C     4.466000000     0.740000000     4.280000000
C     3.679000000    -0.076000000     5.076000000
H     4.127000000    -0.853000000     5.691000000
C     2.317000000     0.027000000     5.089000000
O     1.561000000    -0.767000000     5.999000000
C     0.447000000    -0.287000000     6.562000000
C    -0.784000000    -0.762000000     6.211000000
H    -0.912000000    -1.451000000     5.380000000
C     0.568000000     0.628000000     7.642000000
H     1.518000000     1.022000000     7.995000000
C    -0.551000000     0.831000000     8.511000000
H    -0.304000000     1.523000000     9.312000000
C    -1.796000000     0.286000000     8.149000000
H    -2.659000000     0.436000000     8.793000000
C    -1.934000000    -0.408000000     6.983000000
O    -3.159000000    -0.813000000     6.643000000
C    -3.593000000    -0.921000000     5.295000000
C    -4.144000000    -2.098000000     4.831000000
H    -4.290000000    -2.936000000     5.507000000
C    -4.603000000    -2.180000000     3.515000000
O    -5.254000000    -3.361000000     3.166000000
C    -5.481000000    -3.734000000     1.851000000
C    -6.737000000    -3.685000000     1.309000000
H    -7.589000000    -3.355000000     1.898000000
C    -7.009000000    -4.078000000     0.015000000
H    -8.042000000    -4.005000000    -0.314000000
C    -6.031000000    -4.557000000    -0.828000000
H    -6.333000000    -4.910000000    -1.810000000
C    -4.715000000    -4.599000000    -0.384000000
C    -4.488000000    -4.216000000     0.999000000
H    -3.459000000    -4.233000000     1.349000000
C    -0.488000000    -1.989000000     1.065000000
H    -1.305000000    -2.660000000     1.316000000
C    -0.755000000    -0.907000000     0.292000000
H    -1.782000000    -0.699000000     0.004000000
C     0.247000000     0.044000000     0.043000000
C    -0.231000000     1.339000000    -0.618000000
H    -1.311000000     1.319000000    -0.776000000
H    -0.048000000     2.106000000     0.138000000
H     0.318000000     1.499000000    -1.548000000
C     1.524000000    -0.108000000     0.607000000
H     2.316000000     0.622000000     0.460000000
C     1.750000000    -1.216000000     1.388000000
H     2.725000000    -1.321000000     1.857000000
C     0.752000000    -2.186000000     1.564000000
C     1.051000000    -3.431000000     2.347000000
O     2.219000000    -3.711000000     2.566000000
O     0.064000000    -4.054000000     2.751000000
O     1.606000000    -6.702000000    -1.964000000
H     2.557000000    -6.706000000    -1.852000000
H     1.273000000    -6.284000000    -1.170000000
O    -3.968000000    -7.752000000     2.360000000
H    -4.840000000    -7.924000000     2.715000000
H    -3.793000000    -6.838000000     2.587000000
O     3.076000000    -3.060000000     5.116000000
H     2.760000000    -3.295000000     4.244000000
H     2.418000000    -2.452000000     5.453000000
O     1.790000000    -5.793000000     5.730000000
H     2.010000000    -6.123000000     4.858000000
H     1.815000000    -6.567000000     6.292000000
O     1.410000000    -8.407000000     1.066000000
H     0.875000000    -9.158000000     0.810000000
H     0.781000000    -7.696000000     1.190000000
O     0.048000000    -5.814000000     0.551000000
H    -0.177000000    -5.082000000    -0.024000000
H     0.135000000    -5.420000000     1.418000000
O     0.151000000    -4.559000000     8.208000000
H     0.200000000    -5.486000000     8.444000000
H    -0.047000000    -4.561000000     7.271000000
O     2.080000000    -6.508000000     3.030000000
H     1.815000000    -5.810000000     2.430000000
H     2.190000000    -7.276000000     2.471000000
O     3.032000000    -4.736000000     0.150000000
H     2.883000000    -4.395000000     1.032000000
H     3.974000000    -4.903000000     0.113000000
O     6.331000000    -4.961000000     0.436000000
H     5.836000000    -4.872000000     1.250000000
H     7.212000000    -4.657000000     0.657000000
O     5.910000000    -4.131000000     5.356000000
H     5.041000000    -3.917000000     5.018000000
H     5.957000000    -5.086000000     5.307000000
O     0.962000000    -8.447000000     5.620000000
H     1.462000000    -9.253000000     5.495000000
H     0.518000000    -8.308000000     4.783000000
O     3.843000000    -8.384000000    -0.700000000
H     2.962000000    -8.567000000    -0.374000000
H     4.241000000    -7.836000000    -0.023000000
O    -0.229000000    -4.125000000     5.569000000
H    -0.352000000    -3.933000000     4.640000000
H     0.623000000    -4.557000000     5.614000000
O    -2.994000000    -4.448000000     7.151000000
H    -2.640000000    -4.688000000     8.007000000
H    -2.246000000    -4.085000000     6.676000000
O    -1.947000000    -5.606000000     3.392000000
H    -1.277000000    -5.056000000     2.988000000
H    -1.958000000    -5.335000000     4.310000000
O    -1.234000000    -8.379000000     3.747000000
H    -1.320000000    -7.438000000     3.900000000
H    -1.412000000    -8.488000000     2.813000000
O     2.879000000    -3.447000000     7.809000000
H     2.194000000    -4.105000000     7.932000000
H     2.919000000    -3.317000000     6.861000000
O     4.747000000    -4.723000000     2.767000000
H     4.762000000    -5.466000000     3.370000000
H     3.931000000    -4.266000000     2.971000000
