218
-1479.49116
C     4.749000000     0.955000000    -2.143000000
H     5.114000000     1.962000000    -1.955000000
C     3.553000000     0.607000000    -2.778000000
C     3.116000000    -0.683000000    -2.853000000
H     2.076000000    -0.923000000    -3.062000000
C     2.565000000     1.704000000    -3.078000000
O     3.107000000     3.009000000    -2.840000000
H     1.771000000     1.501000000    -2.345000000
O     2.039000000     1.613000000    -4.340000000
C     0.700000000     1.739000000    -4.349000000
C     0.028000000     0.511000000    -4.460000000
H     0.518000000    -0.438000000    -4.660000000
C    -1.320000000     0.458000000    -4.439000000
O    -1.938000000    -0.801000000    -4.583000000
C    -2.058000000     1.644000000    -4.191000000
C    -3.512000000     1.644000000    -4.047000000
H    -3.955000000     2.632000000    -4.186000000
C    -3.893000000     1.273000000    -2.634000000
C    -4.106000000     2.273000000    -1.683000000
H    -3.993000000     3.328000000    -1.918000000
H    -4.021000000     1.011000000    -4.776000000
C    -1.375000000     2.879000000    -4.009000000
H    -2.015000000     3.706000000    -3.710000000
C     0.028000000     2.941000000    -4.112000000
C     0.728000000     4.243000000    -3.737000000
H    -0.061000000     4.997000000    -3.717000000
H     1.634000000     4.391000000    -4.329000000
C     1.120000000     4.192000000    -2.274000000
C     0.352000000     4.793000000    -1.215000000
H    -0.654000000     5.121000000    -1.466000000
C     2.382000000     3.665000000    -1.917000000
C     2.774000000     3.606000000    -0.589000000
H     3.669000000     3.070000000    -0.282000000
C     1.969000000     4.148000000     0.394000000
O     2.341000000     4.010000000     1.678000000
C     1.624000000     2.994000000     2.359000000
C     2.562000000     2.092000000     3.218000000
C     2.036000000     1.465000000     4.377000000
H     0.986000000     1.606000000     4.621000000
C     3.851000000     1.801000000     2.839000000
H     4.224000000     2.251000000     1.923000000
O     0.662000000     3.683000000     3.128000000
H     1.069000000     2.381000000     1.633000000
C     0.796000000     4.875000000     0.114000000
C    -0.178000000     5.526000000     1.156000000
H    -0.692000000     6.396000000     0.744000000
H     0.306000000     5.975000000     2.026000000
C    -1.083000000     4.515000000     1.734000000
C    -2.283000000     4.195000000     1.075000000
H    -2.588000000     4.882000000     0.289000000
C    -0.676000000     3.632000000     2.760000000
C    -1.526000000     2.543000000     3.201000000
H    -1.204000000     1.790000000     3.916000000
C    -2.712000000     2.368000000     2.512000000
O    -3.507000000     1.332000000     2.988000000
C    -3.465000000     0.169000000     2.213000000
C    -3.457000000    -1.032000000     3.073000000
C    -2.600000000    -1.036000000     4.163000000
H    -2.091000000    -0.168000000     4.576000000
C    -4.102000000    -2.217000000     2.756000000
H    -4.662000000    -2.274000000     1.826000000
O    -4.628000000     0.142000000     1.302000000
H    -2.606000000     0.223000000     1.527000000
C    -3.119000000     3.164000000     1.457000000
C    -4.484000000     2.965000000     0.766000000
H    -4.827000000     3.860000000     0.243000000
H    -5.339000000     2.732000000     1.404000000
C    -4.348000000     1.952000000    -0.315000000
C    -4.439000000     0.581000000     0.015000000
C    -4.386000000    -0.413000000    -1.003000000
H    -4.402000000    -1.430000000    -0.618000000
C    -4.027000000    -0.087000000    -2.308000000
O    -3.800000000    -1.042000000    -3.302000000
C    -2.522000000    -1.435000000    -3.446000000
H    -1.897000000    -1.090000000    -2.610000000
C    -2.362000000    -2.979000000    -3.358000000
C    -1.451000000    -3.545000000    -4.304000000
H    -0.843000000    -3.007000000    -5.027000000
C    -2.952000000    -3.743000000    -2.367000000
H    -3.644000000    -3.261000000    -1.680000000
C    -2.697000000    -5.094000000    -2.285000000
O    -3.184000000    -5.903000000    -1.252000000
C    -1.696000000    -5.636000000    -3.122000000
H    -1.318000000    -6.629000000    -2.894000000
C    -1.045000000    -4.864000000    -4.034000000
O     0.063000000    -5.385000000    -4.648000000
C     1.187000000    -4.643000000    -4.983000000
C     1.844000000    -4.060000000    -3.864000000
H     1.510000000    -4.249000000    -2.847000000
C     1.633000000    -4.256000000    -6.254000000
H     1.053000000    -4.535000000    -7.130000000
C     2.831000000    -3.551000000    -6.450000000
H     3.318000000    -3.561000000    -7.422000000
C     3.549000000    -3.155000000    -5.299000000
H     4.562000000    -2.772000000    -5.390000000
C     3.006000000    -3.304000000    -4.074000000
O     3.850000000    -3.051000000    -3.008000000
C     4.069000000    -1.707000000    -2.693000000
C     5.346000000    -1.402000000    -2.225000000
H     6.054000000    -2.223000000    -2.144000000
C     5.663000000    -0.100000000    -1.867000000
O     6.940000000     0.201000000    -1.411000000
C     7.162000000     0.846000000    -0.195000000
C     6.394000000     0.489000000     0.879000000
H     5.767000000    -0.388000000     0.739000000
C     8.139000000     1.830000000    -0.098000000
H     8.744000000     2.101000000    -0.959000000
C     8.372000000     2.448000000     1.174000000
H     9.179000000     3.133000000     1.419000000
C     7.526000000     2.113000000     2.228000000
H     7.698000000     2.472000000     3.240000000
C     6.540000000     1.167000000     1.987000000
O     5.918000000     0.590000000     3.092000000
C     4.658000000     0.979000000     3.557000000
C     4.236000000     0.385000000     4.747000000
H     4.909000000    -0.288000000     5.272000000
C     2.956000000     0.670000000     5.176000000
O     2.539000000     0.037000000     6.326000000
C     1.199000000    -0.020000000     6.657000000
C     0.475000000    -1.133000000     6.295000000
H     0.819000000    -1.960000000     5.679000000
C     0.650000000     0.971000000     7.459000000
H     1.274000000     1.795000000     7.795000000
C    -0.715000000     0.922000000     7.753000000
H    -1.022000000     1.698000000     8.451000000
C    -1.506000000    -0.171000000     7.341000000
H    -2.516000000    -0.205000000     7.742000000
C    -0.912000000    -1.167000000     6.570000000
O    -1.687000000    -2.204000000     6.131000000
C    -2.576000000    -2.114000000     5.076000000
C    -3.339000000    -3.311000000     4.788000000
H    -3.309000000    -4.172000000     5.450000000
C    -4.006000000    -3.388000000     3.543000000
O    -4.635000000    -4.601000000     3.221000000
C    -4.836000000    -4.979000000     1.892000000
C    -6.149000000    -5.180000000     1.590000000
H    -6.893000000    -5.215000000     2.381000000
C    -6.504000000    -5.504000000     0.302000000
H    -7.564000000    -5.678000000     0.135000000
C    -5.502000000    -5.676000000    -0.736000000
H    -5.774000000    -5.999000000    -1.737000000
C    -4.199000000    -5.514000000    -0.321000000
C    -3.855000000    -5.104000000     0.960000000
H    -2.819000000    -4.931000000     1.240000000
C     0.601000000    -2.504000000    -0.377000000
H     0.036000000    -3.423000000    -0.507000000
C    -0.098000000    -1.373000000    -0.578000000
H    -1.161000000    -1.543000000    -0.728000000
C     0.492000000    -0.095000000    -0.379000000
C    -0.379000000     1.103000000    -0.565000000
H     0.133000000     2.068000000    -0.581000000
H    -0.825000000     0.975000000    -1.553000000
H    -1.252000000     1.109000000     0.091000000
C     1.828000000     0.002000000    -0.063000000
H     2.258000000     0.957000000     0.229000000
C     2.554000000    -1.206000000     0.144000000
H     3.582000000    -1.057000000     0.466000000
C     1.940000000    -2.406000000    -0.086000000
C     2.711000000    -3.705000000     0.106000000
O     3.805000000    -3.621000000     0.660000000
O     2.186000000    -4.788000000    -0.115000000
O     4.839000000    -5.917000000     2.403000000
H     5.657000000    -6.279000000     2.062000000
H     4.353000000    -5.647000000     1.624000000
O    -0.080000000    -5.649000000     1.014000000
H    -0.088000000    -4.961000000     1.680000000
H     0.690000000    -5.455000000     0.479000000
O     4.115000000    -2.210000000     2.830000000
H     4.154000000    -2.933000000     2.204000000
H     5.013000000    -1.880000000     2.871000000
O     5.514000000    -5.542000000    -4.852000000
H     5.377000000    -4.668000000    -5.219000000
H     4.778000000    -6.058000000    -5.180000000
O     2.214000000    -7.771000000    -0.923000000
H     3.008000000    -7.259000000    -1.075000000
H     1.512000000    -7.121000000    -0.889000000
O     3.562000000    -8.423000000     1.781000000
H     3.324000000    -7.702000000     2.364000000
H     3.083000000    -8.246000000     0.972000000
O     4.359000000    -6.166000000    -1.174000000
H     5.092000000    -5.655000000    -1.517000000
H     3.869000000    -5.547000000    -0.632000000
O     1.157000000    -6.982000000     3.266000000
H     0.376000000    -7.472000000     3.522000000
H     0.915000000    -6.561000000     2.441000000
O     8.751000000    -2.854000000    -1.784000000
H     9.514000000    -2.689000000    -2.338000000
H     8.317000000    -3.604000000    -2.190000000
O     2.816000000    -4.929000000     4.752000000
H     2.232000000    -4.982000000     3.995000000
H     3.694000000    -5.028000000     4.385000000
O     1.355000000    -1.714000000     3.120000000
H     1.451000000    -1.641000000     2.171000000
H     2.238000000    -1.902000000     3.437000000
O     6.764000000    -4.334000000     4.013000000
H     7.320000000    -3.717000000     3.537000000
H     6.058000000    -4.541000000     3.401000000
O    -1.719000000    -7.748000000     0.341000000
H    -1.980000000    -7.080000000    -0.293000000
H    -1.139000000    -7.288000000     0.948000000
O    -0.191000000    -3.881000000     3.714000000
H     0.293000000    -3.091000000     3.473000000
H    -0.825000000    -3.583000000     4.366000000
O     7.457000000    -5.600000000     0.388000000
H     7.349000000    -5.443000000    -0.550000000
H     7.183000000    -4.781000000     0.802000000
O     7.116000000    -5.222000000    -2.374000000
H     7.888000000    -5.734000000    -2.617000000
H     6.639000000    -5.103000000    -3.195000000
O     5.746000000    -8.475000000    -1.986000000
H     5.380000000    -9.160000000    -1.426000000
H     5.134000000    -7.744000000    -1.901000000
O     6.417000000    -2.816000000     0.972000000
H     6.763000000    -2.625000000     0.100000000
H     5.603000000    -3.293000000     0.808000000
O     3.472000000    -2.785000000     6.789000000
H     3.706000000    -1.885000000     6.559000000
H     2.990000000    -3.109000000     6.028000000
