218
-1484.87432
C     5.296000000    -1.098000000     0.148000000
H     5.649000000    -0.206000000     0.658000000
C     4.476000000    -1.036000000    -1.003000000
C     4.018000000    -2.260000000    -1.509000000
H     3.274000000    -2.188000000    -2.298000000
C     3.943000000     0.317000000    -1.610000000
O     4.825000000     1.327000000    -1.210000000
H     2.902000000     0.556000000    -1.345000000
O     4.002000000     0.218000000    -3.009000000
C     2.879000000     0.766000000    -3.623000000
C     1.898000000    -0.067000000    -4.149000000
H     2.077000000    -1.107000000    -4.408000000
C     0.660000000     0.429000000    -4.577000000
O    -0.373000000    -0.296000000    -5.036000000
C     0.341000000     1.798000000    -4.382000000
C    -0.989000000     2.463000000    -4.897000000
H    -0.892000000     3.528000000    -5.119000000
C    -2.003000000     2.392000000    -3.805000000
C    -2.110000000     3.488000000    -2.924000000
H    -1.479000000     4.349000000    -3.129000000
H    -1.338000000     2.040000000    -5.842000000
C     1.281000000     2.668000000    -3.844000000
H     0.990000000     3.682000000    -3.580000000
C     2.548000000     2.159000000    -3.454000000
C     3.559000000     3.208000000    -2.929000000
H     3.293000000     4.124000000    -3.461000000
H     4.543000000     2.838000000    -3.222000000
C     3.460000000     3.391000000    -1.449000000
C     2.593000000     4.226000000    -0.833000000
H     2.079000000     4.992000000    -1.408000000
C     4.168000000     2.473000000    -0.668000000
C     3.829000000     2.323000000     0.682000000
H     4.393000000     1.566000000     1.222000000
C     3.006000000     3.209000000     1.292000000
O     2.736000000     3.001000000     2.639000000
C     1.471000000     2.474000000     3.032000000
C     1.621000000     1.392000000     4.098000000
C     0.441000000     0.864000000     4.513000000
H    -0.473000000     1.365000000     4.203000000
C     2.896000000     0.799000000     4.335000000
H     3.819000000     1.228000000     3.952000000
O     0.542000000     3.426000000     3.358000000
H     1.102000000     1.871000000     2.189000000
C     2.407000000     4.210000000     0.573000000
C     1.437000000     5.229000000     1.177000000
H     1.448000000     6.091000000     0.507000000
H     1.876000000     5.551000000     2.123000000
C     0.047000000     4.691000000     1.330000000
C    -0.870000000     4.967000000     0.330000000
H    -0.677000000     5.612000000    -0.524000000
C    -0.325000000     3.840000000     2.384000000
C    -1.634000000     3.397000000     2.426000000
H    -1.964000000     2.712000000     3.203000000
C    -2.589000000     3.656000000     1.499000000
O    -3.790000000     3.055000000     1.522000000
C    -3.833000000     1.747000000     0.749000000
C    -4.622000000     0.651000000     1.472000000
C    -4.710000000     0.636000000     2.856000000
H    -4.375000000     1.433000000     3.516000000
C    -5.043000000    -0.491000000     0.810000000
H    -4.873000000    -0.588000000    -0.259000000
O    -4.487000000     2.066000000    -0.456000000
H    -2.823000000     1.341000000     0.591000000
C    -2.168000000     4.452000000     0.381000000
C    -3.058000000     4.625000000    -0.810000000
H    -2.546000000     5.424000000    -1.351000000
H    -4.112000000     4.867000000    -0.658000000
C    -2.924000000     3.386000000    -1.794000000
C    -3.679000000     2.190000000    -1.560000000
C    -3.499000000     1.039000000    -2.338000000
H    -4.077000000     0.143000000    -2.126000000
C    -2.674000000     1.176000000    -3.463000000
O    -2.498000000     0.067000000    -4.218000000
C    -1.347000000    -0.708000000    -4.056000000
H    -1.049000000    -0.504000000    -3.017000000
C    -1.771000000    -2.211000000    -4.133000000
C    -0.731000000    -3.158000000    -4.287000000
H     0.282000000    -2.841000000    -4.521000000
C    -3.025000000    -2.673000000    -3.826000000
H    -3.839000000    -1.990000000    -3.595000000
C    -3.253000000    -4.006000000    -3.710000000
O    -4.473000000    -4.512000000    -3.329000000
C    -2.258000000    -4.919000000    -3.948000000
H    -2.508000000    -5.972000000    -3.845000000
C    -0.981000000    -4.502000000    -4.206000000
O     0.077000000    -5.468000000    -4.297000000
C     1.334000000    -5.117000000    -4.096000000
C     1.939000000    -5.131000000    -2.846000000
H     1.314000000    -5.531000000    -2.051000000
C     2.072000000    -4.703000000    -5.235000000
H     1.609000000    -4.730000000    -6.218000000
C     3.364000000    -4.257000000    -5.011000000
H     4.056000000    -3.911000000    -5.775000000
C     3.948000000    -4.232000000    -3.763000000
H     4.914000000    -3.755000000    -3.615000000
C     3.179000000    -4.638000000    -2.667000000
O     3.763000000    -4.629000000    -1.436000000
C     4.269000000    -3.487000000    -0.886000000
C     5.125000000    -3.524000000     0.212000000
H     5.424000000    -4.513000000     0.550000000
C     5.716000000    -2.327000000     0.668000000
O     6.694000000    -2.358000000     1.669000000
C     6.532000000    -1.504000000     2.735000000
C     5.369000000    -1.585000000     3.529000000
H     4.525000000    -2.251000000     3.371000000
C     7.642000000    -0.664000000     3.172000000
H     8.597000000    -0.643000000     2.654000000
C     7.543000000     0.117000000     4.286000000
H     8.433000000     0.673000000     4.570000000
C     6.397000000     0.039000000     5.085000000
H     6.399000000     0.724000000     5.929000000
C     5.301000000    -0.725000000     4.717000000
O     4.178000000    -0.905000000     5.426000000
C     2.948000000    -0.357000000     5.097000000
C     1.727000000    -0.878000000     5.609000000
H     1.740000000    -1.714000000     6.304000000
C     0.503000000    -0.281000000     5.272000000
O    -0.657000000    -1.003000000     5.535000000
C    -1.832000000    -0.478000000     5.900000000
C    -3.038000000    -0.752000000     5.203000000
H    -2.890000000    -1.455000000     4.387000000
C    -1.881000000     0.211000000     7.082000000
H    -0.945000000     0.264000000     7.633000000
C    -3.106000000     0.763000000     7.578000000
H    -3.247000000     1.363000000     8.473000000
C    -4.271000000     0.501000000     6.869000000
H    -5.195000000     1.011000000     7.127000000
C    -4.238000000    -0.154000000     5.644000000
O    -5.402000000    -0.424000000     4.935000000
C    -5.298000000    -0.473000000     3.534000000
C    -5.771000000    -1.620000000     2.850000000
H    -6.230000000    -2.445000000     3.388000000
C    -5.594000000    -1.593000000     1.460000000
O    -6.034000000    -2.744000000     0.811000000
C    -6.224000000    -2.867000000    -0.559000000
C    -7.393000000    -2.458000000    -1.206000000
H    -8.199000000    -1.958000000    -0.675000000
C    -7.591000000    -2.777000000    -2.540000000
H    -8.535000000    -2.570000000    -3.038000000
C    -6.658000000    -3.425000000    -3.272000000
H    -6.758000000    -3.478000000    -4.353000000
C    -5.449000000    -3.781000000    -2.632000000
C    -5.249000000    -3.494000000    -1.289000000
H    -4.312000000    -3.797000000    -0.829000000
C    -1.803000000    -2.463000000     1.384000000
H    -2.838000000    -2.778000000     1.486000000
C    -1.390000000    -1.498000000     0.440000000
H    -2.088000000    -1.062000000    -0.269000000
C    -0.056000000    -1.079000000     0.369000000
C     0.267000000     0.039000000    -0.576000000
H    -0.679000000     0.533000000    -0.809000000
H     0.925000000     0.756000000    -0.079000000
H     0.641000000    -0.357000000    -1.522000000
C     0.889000000    -1.611000000     1.246000000
H     1.898000000    -1.207000000     1.266000000
C     0.539000000    -2.628000000     2.130000000
H     1.265000000    -2.951000000     2.871000000
C    -0.771000000    -3.012000000     2.186000000
C    -1.134000000    -4.090000000     3.196000000
O    -0.297000000    -4.682000000     3.915000000
O    -2.338000000    -4.277000000     3.487000000
O    -4.237000000    -2.373000000     8.189000000
H    -3.906000000    -2.712000000     7.357000000
H    -4.800000000    -1.639000000     7.942000000
O    -3.863000000    -7.281000000    -0.399000000
H    -3.553000000    -7.010000000     0.465000000
H    -3.069000000    -7.337000000    -0.931000000
O    -4.729000000    -4.634000000     2.524000000
H    -5.014000000    -4.088000000     1.791000000
H    -3.910000000    -4.234000000     2.816000000
O    -0.361000000    -3.209000000     7.747000000
H     0.119000000    -2.417000000     7.990000000
H    -1.123000000    -2.888000000     7.265000000
O    -0.284000000    -7.292000000     3.094000000
H     0.584000000    -7.617000000     3.333000000
H    -0.306000000    -6.397000000     3.434000000
O    -0.790000000    -5.883000000     6.002000000
H    -0.713000000    -5.149000000     6.612000000
H    -0.535000000    -5.518000000     5.155000000
O     0.359000000    -8.090000000     0.658000000
H     0.941000000    -7.331000000     0.672000000
H    -0.279000000    -7.917000000     1.350000000
O     2.423000000    -5.085000000     4.297000000
H     1.558000000    -4.677000000     4.254000000
H     2.909000000    -4.550000000     4.925000000
O    -3.135000000    -6.707000000     2.107000000
H    -3.912000000    -6.148000000     2.101000000
H    -2.670000000    -6.462000000     2.906000000
O     2.534000000    -7.572000000     3.111000000
H     2.595000000    -6.831000000     3.714000000
H     3.389000000    -7.601000000     2.680000000
O    -3.245000000    -6.819000000     5.570000000
H    -2.338000000    -6.524000000     5.488000000
H    -3.177000000    -7.754000000     5.763000000
O    -1.274000000    -9.878000000     3.784000000
H    -1.353000000    -8.965000000     3.508000000
H    -0.663000000    -9.854000000     4.520000000
O    -1.532000000    -7.074000000    -1.565000000
H    -1.416000000    -6.139000000    -1.401000000
H    -0.665000000    -7.452000000    -1.418000000
O    -4.704000000    -8.772000000     3.338000000
H    -4.349000000    -8.816000000     4.225000000
H    -4.032000000    -8.314000000     2.833000000
O    -0.656000000    -4.607000000    -0.488000000
H     0.247000000    -4.818000000    -0.251000000
H    -0.747000000    -3.677000000    -0.281000000
O     1.899000000    -5.423000000     0.649000000
H     2.828000000    -5.415000000     0.420000000
H     1.887000000    -5.475000000     1.604000000
O    -3.253000000    -3.549000000     5.954000000
H    -3.491000000    -4.420000000     6.272000000
H    -2.835000000    -3.709000000     5.108000000
O     1.775000000    -5.041000000     7.776000000
H     1.105000000    -4.360000000     7.831000000
H     1.710000000    -5.509000000     8.608000000
O    -5.539000000    -5.621000000     4.989000000
H    -5.152000000    -5.179000000     4.233000000
H    -4.835000000    -6.174000000     5.329000000
