218
-1466.39474
C     4.616000000    -2.053000000    -0.049000000
H     4.683000000    -1.343000000     0.772000000
C     4.554000000    -1.570000000    -1.364000000
C     4.440000000    -2.498000000    -2.421000000
H     4.407000000    -2.124000000    -3.440000000
C     4.272000000    -0.058000000    -1.623000000
O     5.057000000     0.813000000    -0.769000000
H     3.243000000     0.102000000    -1.270000000
O     4.350000000     0.350000000    -3.001000000
C     3.281000000     1.078000000    -3.549000000
C     2.267000000     0.386000000    -4.214000000
H     2.495000000    -0.670000000    -4.333000000
C     1.047000000     1.043000000    -4.493000000
O    -0.010000000     0.246000000    -4.867000000
C     0.872000000     2.397000000    -4.112000000
C    -0.332000000     3.162000000    -4.628000000
H    -0.016000000     4.190000000    -4.819000000
C    -1.492000000     3.086000000    -3.689000000
C    -1.613000000     4.090000000    -2.722000000
H    -0.785000000     4.794000000    -2.753000000
H    -0.606000000     2.768000000    -5.609000000
C     1.906000000     3.056000000    -3.484000000
H     1.740000000     4.076000000    -3.147000000
C     3.096000000     2.412000000    -3.159000000
C     4.217000000     3.111000000    -2.333000000
H     4.180000000     4.160000000    -2.634000000
H     5.230000000     2.915000000    -2.693000000
C     4.081000000     3.053000000    -0.846000000
C     3.400000000     4.066000000    -0.135000000
H     3.046000000     4.999000000    -0.566000000
C     4.459000000     1.907000000    -0.165000000
C     4.083000000     1.674000000     1.239000000
H     4.422000000     0.804000000     1.796000000
C     3.315000000     2.662000000     1.858000000
O     2.874000000     2.452000000     3.086000000
C     1.551000000     1.983000000     3.264000000
C     1.402000000     0.919000000     4.341000000
C     0.187000000     0.818000000     5.069000000
H    -0.629000000     1.523000000     4.929000000
C     2.408000000    -0.068000000     4.468000000
H     3.309000000     0.057000000     3.872000000
O     0.674000000     3.108000000     3.685000000
H     1.142000000     1.630000000     2.306000000
C     2.912000000     3.830000000     1.170000000
C     1.908000000     4.863000000     1.822000000
H     2.000000000     5.827000000     1.318000000
H     2.210000000     5.078000000     2.850000000
C     0.480000000     4.447000000     1.741000000
C    -0.256000000     4.944000000     0.673000000
H     0.045000000     5.538000000    -0.187000000
C    -0.121000000     3.672000000     2.754000000
C    -1.496000000     3.408000000     2.722000000
H    -2.034000000     2.920000000     3.530000000
C    -2.235000000     3.787000000     1.657000000
O    -3.506000000     3.300000000     1.644000000
C    -3.679000000     2.152000000     0.649000000
C    -4.567000000     1.070000000     1.289000000
C    -4.311000000     0.547000000     2.601000000
H    -3.483000000     0.860000000     3.232000000
C    -5.632000000     0.481000000     0.574000000
H    -5.851000000     0.894000000    -0.407000000
O    -4.194000000     2.712000000    -0.564000000
H    -2.715000000     1.681000000     0.405000000
C    -1.603000000     4.557000000     0.594000000
C    -2.527000000     5.015000000    -0.527000000
H    -2.181000000     6.022000000    -0.766000000
H    -3.548000000     5.057000000    -0.142000000
C    -2.499000000     4.006000000    -1.666000000
C    -3.362000000     2.901000000    -1.657000000
C    -3.454000000     1.977000000    -2.641000000
H    -4.161000000     1.152000000    -2.640000000
C    -2.457000000     2.010000000    -3.698000000
O    -2.259000000     0.843000000    -4.316000000
C    -1.095000000     0.044000000    -3.927000000
H    -0.716000000     0.323000000    -2.933000000
C    -1.446000000    -1.436000000    -3.771000000
C    -0.589000000    -2.396000000    -4.314000000
H     0.268000000    -2.113000000    -4.921000000
C    -2.446000000    -1.881000000    -2.919000000
H    -3.059000000    -1.172000000    -2.369000000
C    -2.753000000    -3.238000000    -2.870000000
O    -3.771000000    -3.782000000    -2.071000000
C    -1.876000000    -4.176000000    -3.385000000
H    -2.088000000    -5.234000000    -3.252000000
C    -0.713000000    -3.762000000    -4.087000000
O     0.074000000    -4.708000000    -4.602000000
C     1.396000000    -4.419000000    -4.998000000
C     2.273000000    -4.449000000    -3.963000000
H     1.939000000    -4.648000000    -2.948000000
C     1.774000000    -4.386000000    -6.321000000
H     0.998000000    -4.314000000    -7.079000000
C     3.139000000    -4.283000000    -6.636000000
H     3.446000000    -4.124000000    -7.666000000
C     4.068000000    -4.362000000    -5.617000000
H     5.114000000    -4.404000000    -5.908000000
C     3.644000000    -4.426000000    -4.254000000
O     4.521000000    -4.662000000    -3.230000000
C     4.618000000    -3.796000000    -2.185000000
C     4.729000000    -4.268000000    -0.912000000
H     4.641000000    -5.347000000    -0.818000000
C     4.742000000    -3.420000000     0.178000000
O     4.763000000    -3.867000000     1.514000000
C     5.102000000    -3.106000000     2.601000000
C     4.182000000    -3.127000000     3.651000000
H     3.192000000    -3.567000000     3.557000000
C     6.249000000    -2.254000000     2.722000000
H     6.943000000    -2.301000000     1.887000000
C     6.487000000    -1.528000000     3.864000000
H     7.415000000    -0.980000000     4.007000000
C     5.530000000    -1.556000000     4.831000000
H     5.531000000    -1.047000000     5.792000000
C     4.389000000    -2.306000000     4.773000000
O     3.372000000    -1.941000000     5.633000000
C     2.364000000    -1.063000000     5.424000000
C     1.244000000    -1.019000000     6.304000000
H     1.220000000    -1.700000000     7.151000000
C     0.170000000    -0.170000000     6.083000000
O    -0.937000000    -0.269000000     6.907000000
C    -2.249000000    -0.004000000     6.597000000
C    -2.907000000    -0.507000000     5.484000000
H    -2.375000000    -1.093000000     4.738000000
C    -3.007000000     0.685000000     7.504000000
H    -2.505000000     1.039000000     8.400000000
C    -4.426000000     0.898000000     7.363000000
H    -4.967000000     1.493000000     8.095000000
C    -4.994000000     0.410000000     6.219000000
H    -6.045000000     0.589000000     6.006000000
C    -4.296000000    -0.367000000     5.327000000
O    -4.993000000    -1.016000000     4.342000000
C    -5.177000000    -0.435000000     3.106000000
C    -6.148000000    -1.048000000     2.338000000
H    -6.641000000    -1.926000000     2.747000000
C    -6.381000000    -0.586000000     1.094000000
O    -7.269000000    -1.297000000     0.312000000
C    -6.740000000    -2.063000000    -0.779000000
C    -7.794000000    -2.740000000    -1.423000000
H    -8.853000000    -2.565000000    -1.250000000
C    -7.396000000    -3.698000000    -2.413000000
H    -8.162000000    -4.203000000    -2.996000000
C    -6.057000000    -3.988000000    -2.639000000
H    -5.836000000    -4.718000000    -3.414000000
C    -5.057000000    -3.302000000    -1.948000000
C    -5.385000000    -2.261000000    -1.082000000
H    -4.665000000    -1.696000000    -0.497000000
C    -0.310000000    -1.291000000     1.859000000
H    -0.445000000    -1.564000000     2.903000000
C    -0.474000000    -0.042000000     1.378000000
H    -0.896000000     0.664000000     2.088000000
C    -0.155000000     0.336000000     0.087000000
C    -0.250000000     1.738000000    -0.460000000
H     0.731000000     2.148000000    -0.709000000
H    -0.931000000     1.705000000    -1.312000000
H    -0.792000000     2.351000000     0.263000000
C     0.432000000    -0.627000000    -0.711000000
H     0.756000000    -0.285000000    -1.691000000
C     0.607000000    -1.963000000    -0.267000000
H     1.123000000    -2.645000000    -0.937000000
C     0.253000000    -2.305000000     1.026000000
C     0.587000000    -3.660000000     1.490000000
O     0.936000000    -4.531000000     0.711000000
O     0.507000000    -3.915000000     2.705000000
O    -2.528000000    -3.737000000     6.848000000
H    -1.728000000    -3.541000000     6.361000000
H    -2.547000000    -3.086000000     7.550000000
O    -5.935000000    -5.041000000     3.562000000
H    -5.569000000    -4.443000000     2.911000000
H    -6.572000000    -4.512000000     4.042000000
O     1.653000000    -5.395000000     6.765000000
H     2.006000000    -5.620000000     5.904000000
H     2.359000000    -4.913000000     7.195000000
O    -1.420000000    -6.698000000     6.913000000
H    -0.466000000    -6.630000000     6.870000000
H    -1.735000000    -6.022000000     6.313000000
O    -3.703000000    -6.824000000     3.885000000
H    -2.798000000    -6.556000000     3.724000000
H    -4.213000000    -6.021000000     3.783000000
O     1.171000000    -8.882000000    -0.104000000
H     1.003000000    -9.604000000    -0.710000000
H     0.985000000    -8.093000000    -0.613000000
O     1.715000000    -5.979000000     4.114000000
H     1.618000000    -5.403000000     3.355000000
H     1.308000000    -6.802000000     3.844000000
O    -2.729000000    -8.870000000     2.285000000
H    -2.427000000    -9.190000000     3.135000000
H    -3.250000000    -8.095000000     2.492000000
O     0.750000000    -9.864000000     5.497000000
H     0.609000000    -9.191000000     4.832000000
H     1.484000000   -10.381000000     5.163000000
O    -0.754000000    -6.441000000     0.547000000
H    -0.990000000    -6.448000000     1.475000000
H    -0.211000000    -5.659000000     0.444000000
O     7.182000000    -5.862000000     0.583000000
H     6.982000000    -6.461000000    -0.136000000
H     6.692000000    -5.067000000     0.376000000
O    -4.799000000    -4.127000000     1.319000000
H    -4.382000000    -3.858000000     0.501000000
H    -4.965000000    -5.063000000     1.208000000
O     0.454000000    -8.104000000     3.400000000
H    -0.363000000    -7.606000000     3.391000000
H     0.578000000    -8.378000000     2.491000000
O     3.008000000    -6.390000000     1.358000000
H     3.446000000    -5.627000000     0.980000000
H     2.093000000    -6.123000000     1.441000000
O    -1.282000000    -5.835000000     3.523000000
H    -0.867000000    -5.306000000     2.841000000
H    -1.056000000    -5.392000000     4.341000000
O    -0.296000000    -3.930000000     5.262000000
H     0.001000000    -3.754000000     4.370000000
H     0.496000000    -4.193000000     5.731000000
O    -2.196000000    -7.888000000    -1.504000000
H    -1.580000000    -7.523000000    -0.868000000
H    -1.805000000    -7.692000000    -2.355000000
O     3.307000000    -9.139000000     1.664000000
H     2.675000000    -9.053000000     0.951000000
H     3.579000000    -8.241000000     1.854000000
O     4.836000000    -6.354000000     3.990000000
H     4.631000000    -6.755000000     4.835000000
H     3.993000000    -6.039000000     3.664000000
