218
-1480.17583
C     5.271000000    -1.120000000     0.669000000
H     5.174000000    -0.122000000     1.090000000
C     4.955000000    -1.230000000    -0.678000000
C     4.998000000    -2.463000000    -1.298000000
H     4.697000000    -2.718000000    -2.311000000
C     4.285000000    -0.019000000    -1.366000000
O     4.972000000     1.190000000    -1.020000000
H     3.254000000    -0.062000000    -0.985000000
O     4.310000000    -0.090000000    -2.835000000
C     3.112000000     0.209000000    -3.453000000
C     2.325000000    -0.908000000    -3.781000000
H     2.653000000    -1.832000000    -3.312000000
C     1.124000000    -0.727000000    -4.414000000
O     0.276000000    -1.773000000    -4.569000000
C     0.696000000     0.610000000    -4.740000000
C    -0.647000000     0.825000000    -5.339000000
H    -0.626000000     1.623000000    -6.084000000
C    -1.696000000     1.052000000    -4.337000000
C    -1.969000000     2.342000000    -3.763000000
H    -1.504000000     3.247000000    -4.147000000
H    -0.867000000     0.007000000    -6.027000000
C     1.567000000     1.718000000    -4.438000000
H     1.292000000     2.733000000    -4.712000000
C     2.731000000     1.517000000    -3.752000000
C     3.668000000     2.613000000    -3.284000000
H     3.483000000     3.464000000    -3.943000000
H     4.703000000     2.320000000    -3.471000000
C     3.498000000     2.944000000    -1.748000000
C     2.533000000     3.968000000    -1.573000000
H     2.069000000     4.383000000    -2.464000000
C     4.163000000     2.317000000    -0.717000000
C     3.837000000     2.723000000     0.601000000
H     4.145000000     2.152000000     1.474000000
C     2.848000000     3.749000000     0.818000000
O     2.398000000     3.911000000     2.076000000
C     1.088000000     3.493000000     2.451000000
C     0.922000000     2.652000000     3.702000000
C    -0.152000000     2.806000000     4.498000000
H    -0.952000000     3.515000000     4.300000000
C     1.865000000     1.698000000     3.990000000
H     2.676000000     1.564000000     3.279000000
O     0.195000000     4.620000000     2.428000000
H     0.680000000     2.908000000     1.613000000
C     2.260000000     4.370000000    -0.304000000
C     1.155000000     5.464000000    -0.087000000
H     1.139000000     6.126000000    -0.955000000
H     1.400000000     6.195000000     0.687000000
C    -0.203000000     4.866000000     0.103000000
C    -0.988000000     4.689000000    -1.063000000
H    -0.554000000     4.912000000    -2.034000000
C    -0.681000000     4.499000000     1.373000000
C    -1.880000000     3.906000000     1.462000000
H    -2.246000000     3.555000000     2.424000000
C    -2.648000000     3.739000000     0.365000000
O    -3.772000000     3.010000000     0.634000000
C    -3.759000000     1.644000000     0.255000000
C    -4.567000000     0.778000000     1.158000000
C    -4.848000000     1.173000000     2.437000000
H    -4.563000000     2.169000000     2.767000000
C    -4.910000000    -0.517000000     0.831000000
H    -4.719000000    -0.940000000    -0.152000000
O    -4.286000000     1.454000000    -1.067000000
H    -2.738000000     1.237000000     0.230000000
C    -2.244000000     4.095000000    -0.887000000
C    -3.136000000     3.773000000    -2.078000000
H    -2.945000000     4.584000000    -2.784000000
H    -4.192000000     3.819000000    -1.802000000
C    -2.841000000     2.452000000    -2.673000000
C    -3.450000000     1.297000000    -2.148000000
C    -3.241000000     0.029000000    -2.685000000
H    -3.563000000    -0.879000000    -2.181000000
C    -2.348000000    -0.058000000    -3.747000000
O    -2.035000000    -1.351000000    -4.209000000
C    -0.807000000    -1.920000000    -3.645000000
H    -0.579000000    -1.436000000    -2.683000000
C    -1.006000000    -3.362000000    -3.261000000
C     0.114000000    -4.216000000    -3.177000000
H     1.135000000    -3.971000000    -3.458000000
C    -2.336000000    -3.776000000    -2.934000000
H    -3.193000000    -3.124000000    -3.087000000
C    -2.512000000    -5.076000000    -2.430000000
O    -3.769000000    -5.476000000    -2.010000000
C    -1.409000000    -5.891000000    -2.131000000
H    -1.697000000    -6.783000000    -1.581000000
C    -0.092000000    -5.492000000    -2.564000000
O     0.893000000    -6.374000000    -2.237000000
C     2.222000000    -6.071000000    -2.558000000
C     3.140000000    -5.608000000    -1.611000000
H     2.997000000    -5.502000000    -0.538000000
C     2.587000000    -6.306000000    -3.831000000
H     1.892000000    -6.846000000    -4.469000000
C     3.914000000    -5.985000000    -4.188000000
H     4.316000000    -6.113000000    -5.190000000
C     4.788000000    -5.427000000    -3.282000000
H     5.801000000    -5.228000000    -3.623000000
C     4.431000000    -5.354000000    -1.978000000
O     5.335000000    -4.939000000    -1.114000000
C     5.338000000    -3.618000000    -0.594000000
C     5.752000000    -3.464000000     0.698000000
H     6.061000000    -4.281000000     1.346000000
C     5.660000000    -2.283000000     1.366000000
O     6.018000000    -2.381000000     2.700000000
C     5.688000000    -1.327000000     3.502000000
C     4.441000000    -1.250000000     4.124000000
H     3.780000000    -2.108000000     4.027000000
C     6.522000000    -0.179000000     3.588000000
H     7.433000000    -0.077000000     3.004000000
C     6.126000000     0.915000000     4.329000000
H     6.795000000     1.761000000     4.463000000
C     4.866000000     0.970000000     4.870000000
H     4.514000000     1.921000000     5.263000000
C     4.026000000    -0.132000000     4.825000000
O     2.725000000    -0.098000000     5.359000000
C     1.717000000     0.856000000     5.128000000
C     0.643000000     1.119000000     5.997000000
H     0.506000000     0.430000000     6.826000000
C    -0.329000000     2.060000000     5.642000000
O    -1.449000000     2.185000000     6.401000000
C    -2.697000000     2.513000000     5.960000000
C    -3.588000000     1.444000000     5.602000000
H    -3.189000000     0.441000000     5.474000000
C    -3.167000000     3.816000000     6.124000000
H    -2.391000000     4.536000000     6.370000000
C    -4.482000000     4.101000000     5.890000000
H    -4.785000000     5.144000000     5.931000000
C    -5.334000000     3.121000000     5.337000000
H    -6.345000000     3.357000000     5.015000000
C    -4.906000000     1.776000000     5.207000000
O    -5.739000000     0.856000000     4.676000000
C    -5.535000000     0.406000000     3.356000000
C    -5.909000000    -0.903000000     2.997000000
H    -6.359000000    -1.548000000     3.747000000
C    -5.606000000    -1.345000000     1.728000000
O    -5.817000000    -2.712000000     1.446000000
C    -5.831000000    -3.295000000     0.162000000
C    -6.839000000    -2.943000000    -0.670000000
H    -7.637000000    -2.340000000    -0.245000000
C    -6.744000000    -3.429000000    -1.971000000
H    -7.544000000    -3.221000000    -2.678000000
C    -5.751000000    -4.347000000    -2.434000000
H    -5.811000000    -4.763000000    -3.436000000
C    -4.789000000    -4.668000000    -1.522000000
C    -4.821000000    -4.169000000    -0.225000000
H    -4.064000000    -4.412000000     0.517000000
C    -0.592000000    -2.486000000     0.885000000
H    -1.175000000    -3.399000000     0.800000000
C    -0.666000000    -1.477000000    -0.071000000
H    -1.342000000    -1.587000000    -0.915000000
C     0.212000000    -0.418000000     0.025000000
C     0.151000000     0.743000000    -0.867000000
H     0.778000000     0.638000000    -1.756000000
H    -0.897000000     0.818000000    -1.164000000
H     0.433000000     1.617000000    -0.275000000
C     1.132000000    -0.333000000     1.105000000
H     1.801000000     0.512000000     1.250000000
C     1.097000000    -1.279000000     2.115000000
H     1.832000000    -1.230000000     2.915000000
C     0.283000000    -2.429000000     1.970000000
C     0.346000000    -3.506000000     2.962000000
O     1.017000000    -3.320000000     3.962000000
O    -0.593000000    -4.282000000     2.990000000
O     1.697000000    -6.675000000     7.238000000
H     2.342000000    -6.027000000     7.520000000
H     2.069000000    -7.516000000     7.502000000
O     1.724000000    -7.678000000     2.704000000
H     1.007000000    -8.033000000     2.178000000
H     1.301000000    -7.351000000     3.497000000
O    -0.702000000    -1.820000000     5.461000000
H    -0.032000000    -2.317000000     4.992000000
H    -1.327000000    -1.562000000     4.783000000
O    -2.782000000    -7.021000000     5.142000000
H    -1.838000000    -7.137000000     5.245000000
H    -3.095000000    -7.870000000     4.830000000
O     3.480000000    -4.528000000     3.460000000
H     2.667000000    -4.023000000     3.472000000
H     3.218000000    -5.398000000     3.161000000
O    -1.061000000    -8.613000000     1.669000000
H    -1.250000000    -9.121000000     2.458000000
H    -1.902000000    -8.551000000     1.217000000
O     5.312000000    -4.348000000     5.524000000
H     5.053000000    -3.567000000     6.013000000
H     4.732000000    -4.356000000     4.763000000
O    -5.298000000    -4.892000000     3.505000000
H    -5.585000000    -4.149000000     2.974000000
H    -4.352000000    -4.777000000     3.586000000
O    -4.676000000    -7.330000000     1.644000000
H    -3.823000000    -6.931000000     1.471000000
H    -5.225000000    -6.604000000     1.941000000
O     3.564000000    -4.904000000     7.786000000
H     3.010000000    -4.156000000     7.565000000
H     4.259000000    -4.891000000     7.127000000
O    -2.820000000    -4.603000000     4.131000000
H    -1.985000000    -4.382000000     3.718000000
H    -2.716000000    -5.513000000     4.407000000
O     0.173000000    -6.511000000     4.935000000
H     0.716000000    -6.719000000     5.696000000
H     0.361000000    -5.590000000     4.751000000
O    -2.059000000    -3.607000000     6.721000000
H    -2.535000000    -4.122000000     6.070000000
H    -1.556000000    -2.976000000     6.206000000
O    -2.957000000    -1.283000000     3.773000000
H    -3.228000000    -0.675000000     3.085000000
H    -3.225000000    -2.144000000     3.452000000
O     4.206000000    -7.889000000     3.368000000
H     4.764000000    -7.869000000     2.591000000
H     3.335000000    -7.659000000     3.044000000
O     2.258000000    -3.140000000     6.282000000
H     1.607000000    -2.540000000     6.648000000
H     1.980000000    -3.271000000     5.376000000
O    -2.427000000    -5.891000000     1.360000000
H    -1.753000000    -6.548000000     1.188000000
H    -1.944000000    -5.135000000     1.695000000
O    -1.644000000    -0.698000000     8.450000000
H    -2.032000000    -0.663000000     7.576000000
H    -1.658000000     0.209000000     8.756000000
O    -1.241000000    -3.445000000     9.273000000
H    -1.229000000    -2.492000000     9.192000000
H    -1.573000000    -3.753000000     8.429000000
