218
-1457.94881
C     4.692000000    -1.146000000     1.016000000
H     4.843000000    -0.097000000     1.258000000
C     4.216000000    -1.460000000    -0.331000000
C     3.829000000    -2.767000000    -0.485000000
H     3.290000000    -2.999000000    -1.400000000
C     3.800000000    -0.298000000    -1.310000000
O     4.654000000     0.881000000    -1.228000000
H     2.764000000     0.015000000    -1.111000000
O     3.779000000    -0.686000000    -2.704000000
C     2.746000000    -0.375000000    -3.547000000
C     1.870000000    -1.380000000    -3.863000000
H     2.015000000    -2.396000000    -3.504000000
C     0.784000000    -1.019000000    -4.611000000
O    -0.162000000    -1.982000000    -4.681000000
C     0.519000000     0.293000000    -5.012000000
C    -0.866000000     0.776000000    -5.613000000
H    -0.637000000     1.727000000    -6.098000000
C    -1.929000000     1.012000000    -4.538000000
C    -2.149000000     2.286000000    -3.976000000
H    -1.381000000     3.034000000    -4.155000000
H    -1.226000000     0.036000000    -6.331000000
C     1.426000000     1.271000000    -4.705000000
H     1.153000000     2.263000000    -5.056000000
C     2.570000000     0.983000000    -3.955000000
C     3.613000000     2.125000000    -3.582000000
H     3.462000000     2.966000000    -4.262000000
H     4.665000000     1.845000000    -3.671000000
C     3.478000000     2.725000000    -2.219000000
C     2.618000000     3.803000000    -2.033000000
H     2.057000000     4.235000000    -2.858000000
C     4.066000000     2.140000000    -1.123000000
C     3.913000000     2.576000000     0.153000000
H     4.392000000     2.039000000     0.968000000
C     3.099000000     3.701000000     0.344000000
O     2.750000000     4.093000000     1.631000000
C     1.466000000     3.622000000     2.129000000
C     1.628000000     3.106000000     3.593000000
C     0.485000000     2.890000000     4.428000000
H    -0.486000000     3.217000000     4.064000000
C     2.896000000     2.743000000     4.111000000
H     3.732000000     2.894000000     3.433000000
O     0.414000000     4.647000000     2.065000000
H     1.189000000     2.786000000     1.469000000
C     2.426000000     4.316000000    -0.738000000
C     1.408000000     5.432000000    -0.575000000
H     1.433000000     6.041000000    -1.481000000
H     1.864000000     6.096000000     0.162000000
C    -0.003000000     4.880000000    -0.365000000
C    -0.839000000     4.616000000    -1.450000000
H    -0.502000000     4.836000000    -2.460000000
C    -0.391000000     4.519000000     0.927000000
C    -1.625000000     3.924000000     1.155000000
H    -1.897000000     3.493000000     2.115000000
C    -2.445000000     3.707000000     0.087000000
O    -3.705000000     3.065000000     0.317000000
C    -3.923000000     1.688000000    -0.206000000
C    -4.648000000     0.787000000     0.835000000
C    -4.125000000     0.862000000     2.159000000
H    -3.339000000     1.537000000     2.484000000
C    -5.643000000    -0.102000000     0.555000000
H    -5.973000000    -0.113000000    -0.481000000
O    -4.692000000     1.712000000    -1.433000000
H    -2.949000000     1.196000000    -0.342000000
C    -2.169000000     4.185000000    -1.192000000
C    -3.199000000     3.970000000    -2.317000000
H    -2.907000000     4.722000000    -3.054000000
H    -4.193000000     4.265000000    -1.973000000
C    -3.107000000     2.543000000    -2.976000000
C    -3.905000000     1.518000000    -2.552000000
C    -3.690000000     0.232000000    -3.054000000
H    -4.184000000    -0.619000000    -2.593000000
C    -2.719000000    -0.090000000    -4.042000000
O    -2.443000000    -1.433000000    -4.302000000
C    -1.228000000    -1.972000000    -3.682000000
H    -0.934000000    -1.265000000    -2.892000000
C    -1.515000000    -3.319000000    -3.078000000
C    -0.597000000    -4.340000000    -3.213000000
H     0.342000000    -4.117000000    -3.714000000
C    -2.622000000    -3.546000000    -2.244000000
H    -3.249000000    -2.706000000    -1.957000000
C    -2.773000000    -4.832000000    -1.600000000
O    -3.882000000    -5.025000000    -0.809000000
C    -1.836000000    -5.846000000    -1.832000000
H    -1.939000000    -6.789000000    -1.301000000
C    -0.788000000    -5.602000000    -2.744000000
O     0.253000000    -6.539000000    -2.790000000
C     1.554000000    -6.261000000    -2.482000000
C     1.848000000    -5.697000000    -1.255000000
H     1.053000000    -5.373000000    -0.589000000
C     2.591000000    -6.604000000    -3.370000000
H     2.459000000    -7.046000000    -4.354000000
C     3.907000000    -6.332000000    -2.926000000
H     4.750000000    -6.436000000    -3.604000000
C     4.190000000    -5.972000000    -1.608000000
H     5.231000000    -5.824000000    -1.331000000
C     3.184000000    -5.652000000    -0.775000000
O     3.412000000    -5.063000000     0.446000000
C     4.034000000    -3.845000000     0.452000000
C     4.645000000    -3.455000000     1.680000000
H     4.866000000    -4.163000000     2.476000000
C     4.886000000    -2.129000000     1.982000000
O     5.312000000    -1.889000000     3.272000000
C     5.694000000    -0.705000000     3.807000000
C     4.819000000     0.110000000     4.525000000
H     3.835000000    -0.256000000     4.804000000
C     6.925000000    -0.183000000     3.404000000
H     7.554000000    -0.777000000     2.746000000
C     7.342000000     1.103000000     3.886000000
H     8.332000000     1.528000000     3.740000000
C     6.441000000     1.922000000     4.583000000
H     6.753000000     2.903000000     4.932000000
C     5.234000000     1.387000000     4.997000000
O     4.371000000     2.067000000     5.853000000
C     3.065000000     2.274000000     5.424000000
C     1.962000000     2.000000000     6.227000000
H     2.094000000     1.480000000     7.172000000
C     0.658000000     2.264000000     5.692000000
O    -0.419000000     2.030000000     6.467000000
C    -1.709000000     1.959000000     5.956000000
C    -2.218000000     0.882000000     5.265000000
H    -1.605000000     0.064000000     4.895000000
C    -2.481000000     3.140000000     6.133000000
H    -1.954000000     3.977000000     6.583000000
C    -3.745000000     3.196000000     5.719000000
H    -4.307000000     4.121000000     5.820000000
C    -4.352000000     2.107000000     5.084000000
H    -5.393000000     2.114000000     4.770000000
C    -3.587000000     0.944000000     4.894000000
O    -4.129000000    -0.128000000     4.233000000
C    -4.676000000    -0.021000000     3.043000000
C    -5.652000000    -0.925000000     2.766000000
H    -6.029000000    -1.618000000     3.513000000
C    -6.179000000    -1.007000000     1.513000000
O    -7.042000000    -2.059000000     1.178000000
C    -6.678000000    -2.812000000     0.116000000
C    -7.603000000    -2.959000000    -0.968000000
H    -8.576000000    -2.476000000    -0.993000000
C    -7.150000000    -3.753000000    -2.073000000
H    -7.755000000    -3.746000000    -2.977000000
C    -5.910000000    -4.340000000    -2.064000000
H    -5.720000000    -4.967000000    -2.931000000
C    -5.075000000    -4.258000000    -0.945000000
C    -5.446000000    -3.461000000     0.156000000
H    -4.836000000    -3.417000000     1.055000000
C    -1.277000000    -1.343000000     1.370000000
H    -2.059000000    -2.097000000     1.416000000
C    -1.141000000    -0.571000000     0.188000000
H    -1.792000000    -0.746000000    -0.664000000
C    -0.063000000     0.255000000     0.060000000
C     0.072000000     1.063000000    -1.233000000
H     0.162000000     0.448000000    -2.130000000
H    -0.784000000     1.715000000    -1.421000000
H     0.919000000     1.750000000    -1.182000000
C     0.941000000     0.276000000     1.057000000
H     1.824000000     0.904000000     0.973000000
C     0.752000000    -0.431000000     2.204000000
H     1.499000000    -0.435000000     2.994000000
C    -0.398000000    -1.193000000     2.406000000
C    -0.527000000    -2.055000000     3.649000000
O     0.397000000    -2.146000000     4.443000000
O    -1.428000000    -2.877000000     3.661000000
O    -3.906000000    -5.441000000     7.343000000
H    -3.595000000    -4.536000000     7.330000000
H    -3.908000000    -5.680000000     8.270000000
O    -1.633000000    -5.556000000     3.735000000
H    -0.726000000    -5.818000000     3.894000000
H    -1.595000000    -4.604000000     3.645000000
O    -0.068000000    -2.352000000    10.043000000
H     0.011000000    -1.944000000    10.905000000
H     0.703000000    -2.916000000     9.973000000
O     0.054000000    -6.103000000     8.799000000
H    -0.472000000    -6.716000000     9.313000000
H    -0.571000000    -5.696000000     8.199000000
O    -2.255000000    -6.881000000     6.129000000
H    -2.854000000    -6.256000000     6.537000000
H    -2.216000000    -6.611000000     5.211000000
O     2.316000000    -5.148000000     7.269000000
H     3.081000000    -4.622000000     7.036000000
H     1.643000000    -4.880000000     6.643000000
O    -4.242000000    -5.724000000     2.446000000
H    -3.347000000    -6.059000000     2.510000000
H    -4.260000000    -5.245000000     1.617000000
O     1.173000000    -6.363000000     2.258000000
H     2.026000000    -6.446000000     1.831000000
H     1.233000000    -5.547000000     2.755000000
O    -1.378000000    -0.942000000     8.171000000
H    -0.714000000    -0.485000000     7.654000000
H    -0.877000000    -1.447000000     8.811000000
O    -2.997000000    -2.782000000     7.138000000
H    -2.341000000    -2.135000000     7.396000000
H    -2.911000000    -2.845000000     6.186000000
O     0.125000000    -4.194000000     5.933000000
H    -0.710000000    -4.181000000     6.400000000
H     0.070000000    -3.458000000     5.323000000
O     1.302000000    -0.934000000     6.947000000
H     0.932000000    -1.558000000     6.322000000
H     2.242000000    -1.112000000     6.935000000
O     1.978000000    -4.101000000     3.750000000
H     1.462000000    -3.306000000     3.618000000
H     1.752000000    -4.390000000     4.634000000
O    -3.814000000    -3.575000000     4.583000000
H    -3.019000000    -3.174000000     4.231000000
H    -3.857000000    -4.433000000     4.161000000
O    -6.164000000    -3.415000000     5.976000000
H    -5.370000000    -3.432000000     5.441000000
H    -5.852000000    -3.541000000     6.872000000
O     4.449000000    -1.536000000     7.423000000
H     5.227000000    -0.993000000     7.552000000
H     4.793000000    -2.385000000     7.146000000
O    -3.957000000    -0.035000000     9.244000000
H    -4.135000000     0.902000000     9.153000000
H    -3.114000000    -0.162000000     8.809000000
O    -0.179000000    -8.521000000     0.775000000
H     0.292000000    -7.872000000     1.299000000
H    -1.098000000    -8.400000000     1.014000000
O    -6.837000000    -0.335000000     6.030000000
H    -6.003000000    -0.538000000     5.607000000
H    -6.780000000     0.599000000     6.234000000
