218
-1455.83567
C     4.925000000    -2.133000000     0.183000000
H     5.194000000    -1.132000000     0.512000000
C     4.149000000    -2.299000000    -0.956000000
C     3.735000000    -3.579000000    -1.259000000
H     3.005000000    -3.726000000    -2.051000000
C     3.827000000    -1.097000000    -1.905000000
O     4.818000000    -0.022000000    -1.830000000
H     2.819000000    -0.748000000    -1.638000000
O     3.649000000    -1.581000000    -3.218000000
C     2.698000000    -1.095000000    -4.007000000
C     1.516000000    -1.901000000    -4.099000000
H     1.581000000    -2.962000000    -3.872000000
C     0.343000000    -1.369000000    -4.554000000
O    -0.814000000    -2.102000000    -4.466000000
C     0.271000000    -0.035000000    -4.842000000
C    -1.057000000     0.435000000    -5.423000000
H    -0.799000000     1.205000000    -6.153000000
C    -2.004000000     0.976000000    -4.348000000
C    -1.863000000     2.285000000    -3.858000000
H    -1.080000000     2.934000000    -4.242000000
H    -1.541000000    -0.375000000    -5.974000000
C     1.309000000     0.832000000    -4.719000000
H     1.170000000     1.868000000    -5.020000000
C     2.561000000     0.306000000    -4.313000000
C     3.765000000     1.241000000    -4.136000000
H     3.599000000     2.048000000    -4.853000000
H     4.683000000     0.693000000    -4.357000000
C     3.761000000     1.887000000    -2.780000000
C     3.123000000     3.127000000    -2.530000000
H     2.703000000     3.729000000    -3.331000000
C     4.300000000     1.217000000    -1.715000000
C     4.223000000     1.637000000    -0.391000000
H     4.621000000     1.093000000     0.462000000
C     3.553000000     2.802000000    -0.110000000
O     3.337000000     3.109000000     1.232000000
C     1.966000000     3.127000000     1.779000000
C     1.957000000     2.546000000     3.234000000
C     1.109000000     3.073000000     4.202000000
H     0.599000000     4.021000000     4.047000000
C     2.691000000     1.384000000     3.474000000
H     3.268000000     0.915000000     2.682000000
O     1.312000000     4.467000000     1.782000000
H     1.280000000     2.428000000     1.278000000
C     2.997000000     3.541000000    -1.170000000
C     2.327000000     4.902000000    -0.921000000
H     2.446000000     5.498000000    -1.828000000
H     2.745000000     5.391000000    -0.038000000
C     0.842000000     4.730000000    -0.529000000
C    -0.125000000     4.685000000    -1.575000000
H     0.183000000     4.763000000    -2.615000000
C     0.420000000     4.568000000     0.753000000
C    -0.991000000     4.450000000     1.085000000
H    -1.312000000     4.482000000     2.123000000
C    -1.865000000     4.264000000     0.033000000
O    -3.157000000     3.854000000     0.256000000
C    -3.444000000     2.476000000     0.230000000
C    -4.189000000     1.934000000     1.434000000
C    -4.018000000     2.489000000     2.705000000
H    -3.321000000     3.300000000     2.899000000
C    -4.956000000     0.729000000     1.328000000
H    -5.058000000     0.237000000     0.364000000
O    -4.220000000     2.294000000    -1.028000000
H    -2.510000000     1.913000000     0.087000000
C    -1.457000000     4.527000000    -1.306000000
C    -2.407000000     4.265000000    -2.478000000
H    -2.008000000     4.739000000    -3.377000000
H    -3.399000000     4.673000000    -2.270000000
C    -2.639000000     2.821000000    -2.850000000
C    -3.522000000     1.946000000    -2.172000000
C    -3.660000000     0.652000000    -2.622000000
H    -4.442000000     0.068000000    -2.144000000
C    -2.942000000     0.171000000    -3.706000000
O    -2.957000000    -1.136000000    -3.943000000
C    -1.794000000    -1.834000000    -3.434000000
H    -1.314000000    -1.207000000    -2.668000000
C    -2.248000000    -3.150000000    -2.736000000
C    -1.453000000    -4.292000000    -2.753000000
H    -0.543000000    -4.320000000    -3.348000000
C    -3.489000000    -3.244000000    -1.999000000
H    -4.131000000    -2.384000000    -1.827000000
C    -3.810000000    -4.372000000    -1.245000000
O    -4.903000000    -4.428000000    -0.421000000
C    -3.025000000    -5.470000000    -1.264000000
H    -3.234000000    -6.368000000    -0.689000000
C    -1.820000000    -5.460000000    -2.010000000
O    -1.077000000    -6.618000000    -1.895000000
C     0.261000000    -6.600000000    -2.148000000
C     1.253000000    -6.314000000    -1.231000000
H     1.101000000    -6.157000000    -0.166000000
C     0.604000000    -6.726000000    -3.492000000
H    -0.202000000    -6.789000000    -4.218000000
C     1.910000000    -6.534000000    -3.965000000
H     2.245000000    -6.520000000    -4.999000000
C     2.922000000    -6.315000000    -3.000000000
H     3.992000000    -6.269000000    -3.187000000
C     2.546000000    -6.244000000    -1.671000000
O     3.598000000    -5.971000000    -0.763000000
C     4.006000000    -4.675000000    -0.428000000
C     4.765000000    -4.532000000     0.704000000
H     5.078000000    -5.402000000     1.276000000
C     5.278000000    -3.292000000     0.944000000
O     6.018000000    -3.070000000     2.079000000
C     5.976000000    -1.983000000     2.881000000
C     4.811000000    -1.580000000     3.475000000
H     3.901000000    -2.157000000     3.333000000
C     7.138000000    -1.214000000     3.141000000
H     8.083000000    -1.499000000     2.685000000
C     7.098000000    -0.154000000     4.021000000
H     8.045000000     0.314000000     4.280000000
C     5.906000000     0.284000000     4.648000000
H     5.898000000     1.098000000     5.367000000
C     4.754000000    -0.501000000     4.341000000
O     3.594000000    -0.274000000     5.005000000
C     2.757000000     0.859000000     4.777000000
C     1.847000000     1.367000000     5.738000000
H     1.851000000     1.023000000     6.769000000
C     1.014000000     2.442000000     5.473000000
O     0.221000000     2.867000000     6.472000000
C    -1.060000000     3.345000000     6.308000000
C    -2.027000000     2.601000000     5.695000000
H    -1.700000000     1.618000000     5.366000000
C    -1.288000000     4.729000000     6.549000000
H    -0.474000000     5.355000000     6.904000000
C    -2.559000000     5.237000000     6.356000000
H    -2.665000000     6.272000000     6.671000000
C    -3.628000000     4.400000000     5.936000000
H    -4.672000000     4.690000000     5.858000000
C    -3.283000000     3.088000000     5.495000000
O    -4.263000000     2.282000000     5.040000000
C    -4.509000000     1.840000000     3.778000000
C    -5.315000000     0.674000000     3.653000000
H    -5.528000000     0.158000000     4.586000000
C    -5.553000000     0.101000000     2.451000000
O    -6.258000000    -1.040000000     2.418000000
C    -6.378000000    -1.692000000     1.247000000
C    -7.506000000    -1.450000000     0.472000000
H    -8.191000000    -0.709000000     0.876000000
C    -7.764000000    -2.198000000    -0.673000000
H    -8.717000000    -1.946000000    -1.132000000
C    -6.825000000    -3.230000000    -0.986000000
H    -7.061000000    -3.948000000    -1.768000000
C    -5.701000000    -3.407000000    -0.187000000
C    -5.487000000    -2.702000000     0.971000000
H    -4.598000000    -2.856000000     1.578000000
C    -1.407000000    -1.873000000     1.400000000
H    -2.413000000    -2.284000000     1.416000000
C    -1.181000000    -0.803000000     0.535000000
H    -2.019000000    -0.364000000     0.001000000
C     0.089000000    -0.265000000     0.466000000
C     0.274000000     0.787000000    -0.657000000
H     1.178000000     1.351000000    -0.419000000
H     0.228000000     0.369000000    -1.665000000
H    -0.511000000     1.537000000    -0.544000000
C     1.144000000    -0.835000000     1.183000000
H     2.151000000    -0.430000000     1.126000000
C     0.947000000    -1.959000000     1.947000000
H     1.717000000    -2.480000000     2.512000000
C    -0.329000000    -2.472000000     2.094000000
C    -0.397000000    -3.670000000     2.975000000
O     0.392000000    -3.931000000     3.861000000
O    -1.318000000    -4.445000000     2.748000000
O    -4.651000000    -3.381000000     4.466000000
H    -5.007000000    -3.409000000     5.354000000
H    -3.750000000    -3.076000000     4.579000000
O    -2.714000000    -1.454000000     4.914000000
H    -1.759000000    -1.518000000     4.908000000
H    -2.918000000    -0.845000000     4.204000000
O    -5.151000000    -7.701000000     2.844000000
H    -4.412000000    -7.099000000     2.749000000
H    -5.758000000    -7.244000000     3.426000000
O    -1.261000000    -0.603000000     7.913000000
H    -0.943000000    -1.155000000     7.198000000
H    -2.071000000    -1.026000000     8.200000000
O    -0.860000000    -7.409000000     2.361000000
H    -1.416000000    -6.820000000     1.851000000
H    -1.415000000    -8.170000000     2.535000000
O    -4.073000000    -6.978000000     5.925000000
H    -4.611000000    -6.187000000     5.935000000
H    -3.177000000    -6.657000000     5.822000000
O     4.912000000    -4.491000000     4.430000000
H     5.377000000    -4.308000000     3.613000000
H     5.465000000    -4.107000000     5.111000000
O    -2.450000000    -4.233000000     7.413000000
H    -3.034000000    -3.479000000     7.337000000
H    -2.515000000    -4.673000000     6.566000000
O     1.321000000    -6.299000000     3.159000000
H     0.977000000    -5.432000000     3.375000000
H     0.603000000    -6.733000000     2.697000000
O     2.392000000    -3.938000000     5.643000000
H     3.157000000    -4.062000000     5.080000000
H     1.644000000    -4.043000000     5.055000000
O    -3.800000000    -1.730000000     7.234000000
H    -4.066000000    -0.829000000     7.418000000
H    -3.503000000    -1.711000000     6.325000000
O    -1.921000000     0.645000000     3.009000000
H    -1.628000000     0.112000000     2.271000000
H    -2.263000000     1.444000000     2.607000000
O     3.412000000    -6.889000000     4.645000000
H     4.124000000    -6.253000000     4.708000000
H     2.701000000    -6.410000000     4.219000000
O    -3.625000000    -5.489000000     2.103000000
H    -4.208000000    -4.990000000     2.675000000
H    -2.747000000    -5.188000000     2.336000000
O     1.450000000    -8.552000000     5.449000000
H     2.062000000    -7.867000000     5.177000000
H     0.998000000    -8.181000000     6.208000000
O     0.039000000    -2.189000000     5.898000000
H     0.145000000    -2.747000000     5.128000000
H     0.677000000    -2.526000000     6.527000000
O    -1.817000000    -5.566000000     5.248000000
H    -1.849000000    -5.296000000     4.330000000
H    -0.883000000    -5.636000000     5.445000000
O     3.771000000    -4.047000000     7.728000000
H     4.182000000    -3.184000000     7.758000000
H     3.079000000    -3.961000000     7.072000000
O     2.757000000    -8.598000000     1.994000000
H     2.516000000    -7.849000000     2.539000000
H     1.927000000    -9.041000000     1.816000000
