218
-1474.00708
C     4.696000000    -1.823000000    -0.539000000
H     5.098000000    -0.916000000    -0.095000000
C     3.720000000    -1.852000000    -1.500000000
C     3.110000000    -3.046000000    -1.844000000
H     2.277000000    -2.975000000    -2.539000000
C     3.189000000    -0.560000000    -2.011000000
O     4.186000000     0.518000000    -1.856000000
H     2.298000000    -0.234000000    -1.456000000
O     2.845000000    -0.736000000    -3.384000000
C     1.747000000    -0.173000000    -4.004000000
C     0.652000000    -1.023000000    -4.165000000
H     0.713000000    -2.085000000    -3.945000000
C    -0.584000000    -0.524000000    -4.583000000
O    -1.677000000    -1.318000000    -4.583000000
C    -0.704000000     0.863000000    -4.788000000
C    -2.056000000     1.448000000    -5.162000000
H    -1.894000000     2.441000000    -5.587000000
C    -2.730000000     1.635000000    -3.777000000
C    -2.639000000     2.869000000    -3.106000000
H    -1.969000000     3.606000000    -3.540000000
H    -2.548000000     0.749000000    -5.841000000
C     0.420000000     1.707000000    -4.583000000
H     0.340000000     2.788000000    -4.674000000
C     1.637000000     1.203000000    -4.179000000
C     2.764000000     2.173000000    -3.840000000
H     2.646000000     3.052000000    -4.477000000
H     3.687000000     1.632000000    -4.055000000
C     2.883000000     2.532000000    -2.398000000
C     2.261000000     3.667000000    -1.903000000
H     1.629000000     4.258000000    -2.560000000
C     3.771000000     1.782000000    -1.555000000
C     4.017000000     2.224000000    -0.276000000
H     4.581000000     1.613000000     0.425000000
C     3.442000000     3.410000000     0.179000000
O     3.381000000     3.652000000     1.522000000
C     2.252000000     3.196000000     2.180000000
C     2.610000000     2.543000000     3.464000000
C     1.862000000     2.604000000     4.675000000
H     1.039000000     3.314000000     4.704000000
C     3.749000000     1.656000000     3.521000000
H     4.333000000     1.640000000     2.605000000
O     1.409000000     4.306000000     2.442000000
H     1.719000000     2.468000000     1.551000000
C     2.612000000     4.161000000    -0.666000000
C     1.910000000     5.399000000    -0.190000000
H     1.851000000     6.168000000    -0.963000000
H     2.516000000     5.839000000     0.605000000
C     0.489000000     5.079000000     0.257000000
C    -0.531000000     4.964000000    -0.609000000
H    -0.303000000     5.332000000    -1.606000000
C     0.352000000     4.477000000     1.537000000
C    -0.885000000     3.946000000     1.893000000
H    -1.001000000     3.463000000     2.860000000
C    -1.918000000     3.844000000     1.008000000
O    -3.073000000     3.302000000     1.493000000
C    -3.475000000     2.014000000     0.905000000
C    -3.874000000     1.109000000     2.031000000
C    -3.126000000     1.065000000     3.218000000
H    -2.326000000     1.771000000     3.426000000
C    -4.849000000     0.151000000     1.805000000
H    -5.404000000     0.146000000     0.870000000
O    -4.513000000     2.273000000    -0.033000000
H    -2.564000000     1.579000000     0.471000000
C    -1.780000000     4.391000000    -0.285000000
C    -2.988000000     4.499000000    -1.220000000
H    -2.849000000     5.251000000    -1.999000000
H    -3.891000000     4.728000000    -0.651000000
C    -3.258000000     3.154000000    -1.894000000
C    -4.055000000     2.120000000    -1.310000000
C    -4.147000000     0.861000000    -1.975000000
H    -4.839000000     0.129000000    -1.564000000
C    -3.505000000     0.640000000    -3.161000000
O    -3.557000000    -0.687000000    -3.569000000
C    -2.409000000    -1.526000000    -3.372000000
H    -1.895000000    -1.108000000    -2.494000000
C    -2.744000000    -2.982000000    -3.138000000
C    -1.884000000    -3.942000000    -3.615000000
H    -1.010000000    -3.678000000    -4.206000000
C    -3.584000000    -3.270000000    -2.066000000
H    -3.997000000    -2.419000000    -1.531000000
C    -3.654000000    -4.533000000    -1.597000000
O    -4.491000000    -4.864000000    -0.537000000
C    -2.910000000    -5.584000000    -2.152000000
H    -2.967000000    -6.554000000    -1.663000000
C    -2.142000000    -5.259000000    -3.222000000
O    -1.336000000    -6.228000000    -3.713000000
C     0.053000000    -6.112000000    -3.719000000
C     0.795000000    -5.970000000    -2.530000000
H     0.394000000    -5.910000000    -1.522000000
C     0.666000000    -6.123000000    -4.984000000
H     0.012000000    -6.142000000    -5.853000000
C     2.007000000    -5.971000000    -5.133000000
H     2.411000000    -5.912000000    -6.141000000
C     2.779000000    -5.823000000    -3.984000000
H     3.837000000    -5.605000000    -4.107000000
C     2.179000000    -5.690000000    -2.733000000
O     2.984000000    -5.443000000    -1.625000000
C     3.637000000    -4.273000000    -1.360000000
C     4.573000000    -4.194000000    -0.338000000
H     4.796000000    -5.162000000     0.102000000
C     5.138000000    -2.975000000     0.085000000
O     6.077000000    -2.979000000     1.191000000
C     6.360000000    -1.814000000     1.866000000
C     5.530000000    -1.362000000     2.900000000
H     4.629000000    -1.918000000     3.147000000
C     7.467000000    -1.125000000     1.528000000
H     8.132000000    -1.472000000     0.742000000
C     7.794000000     0.076000000     2.207000000
H     8.643000000     0.679000000     1.896000000
C     6.893000000     0.626000000     3.075000000
H     6.986000000     1.588000000     3.572000000
C     5.894000000    -0.251000000     3.581000000
O     5.146000000     0.073000000     4.673000000
C     4.111000000     0.925000000     4.629000000
C     3.421000000     1.121000000     5.817000000
H     3.739000000     0.493000000     6.644000000
C     2.222000000     1.842000000     5.798000000
O     1.487000000     1.901000000     6.956000000
C     0.142000000     2.046000000     6.866000000
C    -0.642000000     1.002000000     6.374000000
H    -0.128000000     0.065000000     6.179000000
C    -0.435000000     3.284000000     7.126000000
H     0.190000000     4.107000000     7.463000000
C    -1.810000000     3.488000000     6.827000000
H    -2.241000000     4.459000000     7.054000000
C    -2.521000000     2.461000000     6.272000000
H    -3.579000000     2.670000000     6.136000000
C    -1.962000000     1.228000000     6.025000000
O    -2.744000000     0.164000000     5.417000000
C    -3.451000000     0.137000000     4.215000000
C    -4.416000000    -0.787000000     4.031000000
H    -4.666000000    -1.530000000     4.784000000
C    -5.055000000    -0.857000000     2.778000000
O    -6.154000000    -1.695000000     2.633000000
C    -6.403000000    -2.468000000     1.482000000
C    -7.578000000    -2.215000000     0.730000000
H    -8.343000000    -1.544000000     1.112000000
C    -7.689000000    -2.856000000    -0.521000000
H    -8.590000000    -2.646000000    -1.091000000
C    -6.620000000    -3.718000000    -1.003000000
H    -6.634000000    -4.351000000    -1.887000000
C    -5.519000000    -4.027000000    -0.154000000
C    -5.450000000    -3.418000000     1.074000000
H    -4.670000000    -3.569000000     1.816000000
C    -1.910000000    -1.473000000     1.358000000
H    -2.853000000    -2.007000000     1.450000000
C    -1.556000000    -0.555000000     0.363000000
H    -2.151000000    -0.186000000    -0.468000000
C    -0.309000000     0.109000000     0.481000000
C     0.116000000     1.055000000    -0.660000000
H    -0.417000000     2.007000000    -0.608000000
H     1.192000000     1.229000000    -0.719000000
H    -0.152000000     0.747000000    -1.672000000
C     0.579000000    -0.172000000     1.514000000
H     1.569000000     0.274000000     1.457000000
C     0.211000000    -1.044000000     2.555000000
H     0.916000000    -1.346000000     3.325000000
C    -1.000000000    -1.730000000     2.463000000
C    -1.423000000    -2.709000000     3.574000000
O    -0.540000000    -2.889000000     4.406000000
O    -2.187000000    -3.588000000     3.272000000
O    -5.858000000    -6.874000000     3.760000000
H    -5.377000000    -7.056000000     4.567000000
H    -5.261000000    -6.331000000     3.243000000
O    -3.215000000    -6.086000000     3.218000000
H    -2.919000000    -5.222000000     2.931000000
H    -2.734000000    -6.245000000     4.030000000
O    -2.923000000    -1.912000000     7.662000000
H    -2.792000000    -2.626000000     7.038000000
H    -2.959000000    -1.124000000     7.119000000
O    -0.132000000    -1.334000000     8.747000000
H     0.125000000    -2.034000000     8.147000000
H    -0.924000000    -1.662000000     9.172000000
O    -5.995000000     2.227000000     3.430000000
H    -5.481000000     1.459000000     3.180000000
H    -6.385000000     1.990000000     4.272000000
O     2.204000000    -6.834000000     1.152000000
H     2.339000000    -5.893000000     1.262000000
H     1.279000000    -6.969000000     1.360000000
O     3.714000000    -6.140000000     4.501000000
H     2.966000000    -5.586000000     4.277000000
H     4.415000000    -5.843000000     3.921000000
O    -5.640000000    -3.849000000     5.812000000
H    -4.695000000    -4.006000000     5.809000000
H    -5.946000000    -4.240000000     6.630000000
O     0.206000000    -3.157000000     6.941000000
H     0.061000000    -2.972000000     6.013000000
H    -0.541000000    -3.697000000     7.197000000
O     2.373000000    -4.739000000     7.986000000
H     3.189000000    -4.307000000     7.732000000
H     1.684000000    -4.156000000     7.668000000
O    -4.212000000    -7.426000000     0.907000000
H    -3.785000000    -6.987000000     1.642000000
H    -4.445000000    -6.717000000     0.308000000
O    -2.994000000    -4.213000000     5.908000000
H    -2.550000000    -3.992000000     5.090000000
H    -2.430000000    -4.870000000     6.317000000
O     2.441000000    -4.149000000     1.747000000
H     2.170000000    -4.208000000     2.663000000
H     3.264000000    -3.661000000     1.771000000
O    -0.501000000    -4.517000000     1.044000000
H     0.395000000    -4.182000000     1.082000000
H    -0.932000000    -4.133000000     1.808000000
O    -0.793000000    -7.180000000     1.091000000
H    -1.718000000    -7.401000000     1.203000000
H    -0.790000000    -6.237000000     0.930000000
O     1.209000000    -5.048000000     4.283000000
H     0.495000000    -5.671000000     4.143000000
H     0.784000000    -4.279000000     4.663000000
O    -5.738000000    -0.904000000     6.841000000
H    -5.090000000    -1.157000000     7.499000000
H    -6.079000000    -1.735000000     6.509000000
O    -0.471000000    -7.078000000     4.496000000
H    -0.227000000    -7.917000000     4.888000000
H    -0.519000000    -7.258000000     3.558000000
O    -0.950000000    -5.562000000     6.968000000
H    -0.912000000    -6.155000000     7.718000000
H    -0.495000000    -6.032000000     6.269000000
