218
-1475.68484
C     5.665000000    -0.226000000    -0.187000000
H     5.850000000     0.477000000     0.621000000
C     4.752000000     0.154000000    -1.207000000
C     4.456000000    -0.758000000    -2.204000000
H     3.803000000    -0.394000000    -2.993000000
C     3.999000000     1.537000000    -1.169000000
O     4.577000000     2.384000000    -0.160000000
H     2.992000000     1.381000000    -0.757000000
O     3.879000000     2.244000000    -2.450000000
C     2.644000000     2.685000000    -2.841000000
C     1.807000000     1.968000000    -3.647000000
H     2.242000000     1.027000000    -3.973000000
C     0.536000000     2.399000000    -3.899000000
O    -0.190000000     1.528000000    -4.735000000
C    -0.034000000     3.580000000    -3.389000000
C    -1.435000000     4.006000000    -3.716000000
H    -1.563000000     5.076000000    -3.540000000
C    -2.424000000     3.385000000    -2.740000000
C    -2.816000000     4.016000000    -1.604000000
H    -2.349000000     4.939000000    -1.271000000
H    -1.686000000     3.747000000    -4.747000000
C     0.762000000     4.197000000    -2.400000000
H     0.335000000     4.989000000    -1.789000000
C     2.096000000     3.791000000    -2.164000000
C     2.835000000     4.588000000    -1.146000000
H     2.424000000     5.599000000    -1.161000000
H     3.889000000     4.594000000    -1.433000000
C     2.774000000     4.030000000     0.263000000
C     1.696000000     4.457000000     1.029000000
H     1.068000000     5.266000000     0.666000000
C     3.560000000     2.923000000     0.681000000
C     3.315000000     2.383000000     1.902000000
H     3.936000000     1.546000000     2.211000000
C     2.335000000     2.905000000     2.726000000
O     2.111000000     2.247000000     3.916000000
C     1.002000000     1.389000000     4.005000000
C     1.430000000     0.107000000     4.691000000
C     0.406000000    -0.716000000     5.203000000
H    -0.604000000    -0.332000000     5.319000000
C     2.713000000    -0.401000000     4.641000000
H     3.480000000     0.238000000     4.209000000
O    -0.123000000     1.976000000     4.639000000
H     0.576000000     1.227000000     3.004000000
C     1.507000000     3.925000000     2.341000000
C     0.423000000     4.511000000     3.158000000
H     0.047000000     5.505000000     2.908000000
H     0.786000000     4.446000000     4.186000000
C    -0.879000000     3.685000000     3.054000000
C    -1.809000000     4.114000000     2.133000000
H    -1.518000000     4.938000000     1.487000000
C    -1.118000000     2.526000000     3.792000000
C    -2.261000000     1.753000000     3.564000000
H    -2.381000000     0.800000000     4.072000000
C    -3.143000000     2.164000000     2.566000000
O    -4.170000000     1.287000000     2.259000000
C    -3.999000000     0.532000000     1.031000000
C    -4.609000000    -0.898000000     1.192000000
C    -4.442000000    -1.522000000     2.405000000
H    -3.988000000    -0.954000000     3.214000000
C    -4.954000000    -1.684000000     0.075000000
H    -4.876000000    -1.252000000    -0.920000000
O    -4.753000000     1.199000000    -0.022000000
H    -2.939000000     0.477000000     0.745000000
C    -2.990000000     3.386000000     1.841000000
C    -3.940000000     3.917000000     0.783000000
H    -4.025000000     5.005000000     0.788000000
H    -4.927000000     3.494000000     0.980000000
C    -3.596000000     3.337000000    -0.614000000
C    -4.007000000     2.035000000    -0.906000000
C    -3.648000000     1.409000000    -2.082000000
H    -3.980000000     0.429000000    -2.415000000
C    -2.855000000     2.049000000    -2.977000000
O    -2.361000000     1.348000000    -4.095000000
C    -1.134000000     0.612000000    -4.067000000
H    -0.859000000     0.626000000    -3.002000000
C    -1.171000000    -0.812000000    -4.561000000
C    -0.059000000    -1.405000000    -5.103000000
H     0.876000000    -0.865000000    -5.225000000
C    -2.372000000    -1.531000000    -4.465000000
H    -3.208000000    -1.132000000    -3.897000000
C    -2.456000000    -2.878000000    -5.005000000
O    -3.699000000    -3.542000000    -5.085000000
C    -1.301000000    -3.443000000    -5.553000000
H    -1.273000000    -4.462000000    -5.933000000
C    -0.159000000    -2.740000000    -5.555000000
O     0.944000000    -3.391000000    -6.130000000
C     2.182000000    -2.914000000    -5.864000000
C     2.749000000    -3.239000000    -4.649000000
H     2.236000000    -3.796000000    -3.869000000
C     2.829000000    -2.107000000    -6.800000000
H     2.304000000    -1.950000000    -7.738000000
C     4.104000000    -1.603000000    -6.544000000
H     4.582000000    -0.930000000    -7.250000000
C     4.682000000    -1.888000000    -5.256000000
H     5.689000000    -1.581000000    -4.986000000
C     3.995000000    -2.693000000    -4.344000000
O     4.510000000    -3.025000000    -3.098000000
C     4.972000000    -2.062000000    -2.194000000
C     5.754000000    -2.470000000    -1.097000000
H     6.033000000    -3.496000000    -0.871000000
C     6.150000000    -1.559000000    -0.119000000
O     6.885000000    -2.050000000     0.916000000
C     6.702000000    -1.574000000     2.213000000
C     5.558000000    -1.999000000     2.916000000
H     4.905000000    -2.789000000     2.552000000
C     7.416000000    -0.544000000     2.764000000
H     8.310000000    -0.126000000     2.308000000
C     7.196000000    -0.069000000     4.019000000
H     7.858000000     0.635000000     4.517000000
C     6.197000000    -0.635000000     4.822000000
H     6.070000000    -0.276000000     5.840000000
C     5.315000000    -1.524000000     4.221000000
O     4.294000000    -2.059000000     5.042000000
C     2.957000000    -1.664000000     5.095000000
C     1.984000000    -2.453000000     5.654000000
H     2.197000000    -3.447000000     6.040000000
C     0.711000000    -1.937000000     5.688000000
O    -0.323000000    -2.796000000     6.184000000
C    -1.633000000    -2.612000000     6.034000000
C    -2.307000000    -3.083000000     4.894000000
H    -1.753000000    -3.575000000     4.097000000
C    -2.346000000    -2.097000000     7.125000000
H    -1.844000000    -1.593000000     7.947000000
C    -3.751000000    -2.056000000     7.038000000
H    -4.259000000    -1.562000000     7.863000000
C    -4.436000000    -2.457000000     5.918000000
H    -5.513000000    -2.421000000     5.770000000
C    -3.700000000    -3.005000000     4.846000000
O    -4.402000000    -3.547000000     3.766000000
C    -4.676000000    -2.862000000     2.556000000
C    -5.070000000    -3.596000000     1.482000000
H    -5.127000000    -4.681000000     1.452000000
C    -5.271000000    -3.024000000     0.238000000
O    -5.637000000    -3.789000000    -0.790000000
C    -5.712000000    -3.421000000    -2.118000000
C    -6.981000000    -3.294000000    -2.714000000
H    -7.771000000    -3.245000000    -1.969000000
C    -7.158000000    -3.041000000    -4.048000000
H    -8.124000000    -2.876000000    -4.519000000
C    -5.996000000    -3.082000000    -4.870000000
H    -6.006000000    -2.848000000    -5.932000000
C    -4.778000000    -3.390000000    -4.284000000
C    -4.600000000    -3.557000000    -2.875000000
H    -3.649000000    -3.803000000    -2.409000000
C    -0.966000000    -2.530000000     0.237000000
H    -1.704000000    -3.234000000    -0.138000000
C    -1.063000000    -1.199000000    -0.182000000
H    -1.765000000    -0.826000000    -0.923000000
C    -0.119000000    -0.319000000     0.303000000
C     0.037000000     1.099000000    -0.236000000
H    -0.863000000     1.575000000     0.159000000
H     0.966000000     1.540000000     0.129000000
H    -0.019000000     1.166000000    -1.325000000
C     0.860000000    -0.752000000     1.183000000
H     1.641000000    -0.055000000     1.477000000
C     0.858000000    -2.056000000     1.668000000
H     1.550000000    -2.356000000     2.451000000
C    -0.032000000    -2.978000000     1.142000000
C    -0.039000000    -4.352000000     1.609000000
O     0.945000000    -4.654000000     2.258000000
O    -0.803000000    -5.194000000     1.223000000
O    -2.208000000    -5.636000000    -1.094000000
H    -1.855000000    -6.234000000    -1.752000000
H    -1.461000000    -5.428000000    -0.534000000
O     0.311000000    -7.473000000     0.102000000
H    -0.496000000    -7.988000000     0.118000000
H     0.077000000    -6.648000000     0.528000000
O    -1.469000000    -7.715000000    -2.986000000
H    -1.645000000    -8.620000000    -2.726000000
H    -0.763000000    -7.784000000    -3.629000000
O     1.049000000    -5.909000000     7.052000000
H     0.234000000    -6.411000000     7.092000000
H     1.358000000    -6.025000000     6.154000000
O     3.455000000    -4.649000000    -0.815000000
H     2.679000000    -5.034000000    -1.221000000
H     3.633000000    -3.864000000    -1.334000000
O     1.614000000    -2.359000000    -1.906000000
H     0.729000000    -2.572000000    -2.202000000
H     1.586000000    -2.483000000    -0.957000000
O     4.482000000    -5.265000000     4.372000000
H     4.113000000    -5.005000000     3.528000000
H     3.741000000    -5.628000000     4.856000000
O    -4.043000000    -8.019000000     3.940000000
H    -3.671000000    -7.173000000     3.694000000
H    -4.951000000    -7.979000000     3.640000000
O     1.526000000    -5.871000000    -2.170000000
H     1.233000000    -6.474000000    -1.487000000
H     1.183000000    -6.243000000    -2.982000000
O    -6.401000000    -7.407000000     1.743000000
H    -6.474000000    -6.801000000     2.480000000
H    -5.481000000    -7.357000000     1.482000000
O     5.247000000    -7.488000000     2.916000000
H     4.708000000    -8.271000000     3.035000000
H     4.682000000    -6.765000000     3.187000000
O     3.391000000    -4.947000000     1.940000000
H     2.471000000    -4.954000000     2.205000000
H     3.370000000    -4.742000000     1.006000000
O    -3.904000000    -6.738000000     0.784000000
H    -3.461000000    -6.455000000     1.585000000
H    -3.359000000    -6.395000000     0.076000000
O    -2.262000000    -6.059000000     3.322000000
H    -1.958000000    -6.165000000     4.224000000
H    -1.470000000    -5.855000000     2.825000000
O     2.342000000    -8.141000000     2.670000000
H     2.963000000    -8.863000000     2.774000000
H     1.834000000    -8.373000000     1.892000000
O     1.662000000    -6.049000000     4.278000000
H     1.774000000    -6.846000000     3.760000000
H     1.396000000    -5.385000000     3.642000000
O     1.987000000   -10.610000000    -0.636000000
H     2.310000000    -9.733000000    -0.427000000
H     1.464000000   -10.489000000    -1.429000000
O     3.196000000    -8.118000000    -0.584000000
H     2.600000000    -7.588000000    -0.055000000
H     4.069000000    -7.796000000    -0.357000000
O     1.464000000   -10.131000000     5.277000000
H     1.515000000    -9.202000000     5.052000000
H     1.171000000   -10.556000000     4.471000000
