218
-1479.66861
C    -4.477000000    -1.715000000    -2.249000000
H    -4.526000000    -0.718000000    -2.679000000
C    -4.448000000    -1.789000000    -0.857000000
C    -4.467000000    -2.986000000    -0.231000000
H    -4.373000000    -3.048000000     0.850000000
C    -4.273000000    -0.480000000    -0.079000000
O    -4.966000000     0.594000000    -0.618000000
H    -3.185000000    -0.314000000    -0.088000000
O    -4.654000000    -0.725000000     1.286000000
C    -3.920000000    -0.130000000     2.212000000
C    -3.034000000    -0.924000000     2.893000000
H    -3.019000000    -1.945000000     2.522000000
C    -2.250000000    -0.437000000     3.961000000
O    -1.376000000    -1.292000000     4.571000000
C    -2.189000000     0.937000000     4.274000000
C    -1.203000000     1.496000000     5.207000000
H    -1.613000000     2.428000000     5.600000000
C     0.201000000     1.737000000     4.543000000
C     0.512000000     2.919000000     3.897000000
H    -0.223000000     3.715000000     3.804000000
H    -1.034000000     0.856000000     6.076000000
C    -2.952000000     1.754000000     3.456000000
H    -2.892000000     2.834000000     3.571000000
C    -3.872000000     1.180000000     2.545000000
C    -4.785000000     2.100000000     1.795000000
H    -5.019000000     3.005000000     2.360000000
H    -5.752000000     1.622000000     1.623000000
C    -4.127000000     2.547000000     0.474000000
C    -3.356000000     3.718000000     0.495000000
H    -3.209000000     4.256000000     1.429000000
C    -4.255000000     1.776000000    -0.673000000
C    -3.533000000     2.124000000    -1.783000000
H    -3.674000000     1.536000000    -2.687000000
C    -2.718000000     3.236000000    -1.763000000
O    -1.935000000     3.457000000    -2.841000000
C    -0.618000000     2.922000000    -2.774000000
C    -0.216000000     2.120000000    -4.014000000
C     1.138000000     1.656000000    -4.127000000
H     1.865000000     1.771000000    -3.328000000
C    -1.146000000     1.894000000    -4.954000000
H    -2.173000000     2.216000000    -4.803000000
O     0.258000000     4.012000000    -2.643000000
H    -0.578000000     2.319000000    -1.855000000
C    -2.575000000     4.020000000    -0.612000000
C    -1.627000000     5.171000000    -0.614000000
H    -1.929000000     5.843000000     0.192000000
H    -1.817000000     5.705000000    -1.547000000
C    -0.121000000     4.857000000    -0.461000000
C     0.335000000     4.943000000     0.855000000
H    -0.324000000     5.400000000     1.589000000
C     0.715000000     4.346000000    -1.430000000
C     2.039000000     3.990000000    -1.082000000
H     2.706000000     3.618000000    -1.856000000
C     2.505000000     4.069000000     0.245000000
O     3.762000000     3.466000000     0.598000000
C     3.736000000     2.113000000     1.097000000
C     4.922000000     1.299000000     0.598000000
C     5.279000000     1.498000000    -0.735000000
H     4.951000000     2.311000000    -1.378000000
C     5.477000000     0.304000000     1.331000000
H     5.210000000     0.126000000     2.370000000
O     3.821000000     2.211000000     2.546000000
H     2.771000000     1.718000000     0.748000000
C     1.608000000     4.493000000     1.245000000
C     2.044000000     4.449000000     2.714000000
H     1.506000000     5.197000000     3.300000000
H     3.108000000     4.616000000     2.892000000
C     1.717000000     3.096000000     3.207000000
C     2.659000000     2.070000000     3.211000000
C     2.321000000     0.845000000     3.810000000
H     2.927000000    -0.048000000     3.679000000
C     1.132000000     0.662000000     4.441000000
O     0.905000000    -0.616000000     4.895000000
C    -0.023000000    -1.360000000     4.077000000
H    -0.082000000    -0.880000000     3.089000000
C     0.408000000    -2.799000000     3.763000000
C    -0.530000000    -3.844000000     3.629000000
H    -1.559000000    -3.677000000     3.937000000
C     1.683000000    -3.042000000     3.168000000
H     2.396000000    -2.228000000     3.276000000
C     2.005000000    -4.237000000     2.557000000
O     3.280000000    -4.439000000     2.076000000
C     1.145000000    -5.259000000     2.484000000
H     1.335000000    -6.219000000     2.011000000
C    -0.149000000    -5.036000000     2.952000000
O    -1.105000000    -6.033000000     2.901000000
C    -2.465000000    -5.811000000     2.608000000
C    -2.824000000    -5.661000000     1.286000000
H    -2.094000000    -5.687000000     0.481000000
C    -3.336000000    -5.780000000     3.669000000
H    -3.074000000    -6.001000000     4.701000000
C    -4.668000000    -5.627000000     3.365000000
H    -5.383000000    -5.632000000     4.183000000
C    -5.083000000    -5.523000000     2.034000000
H    -6.148000000    -5.412000000     1.850000000
C    -4.145000000    -5.524000000     1.015000000
O    -4.422000000    -5.369000000    -0.336000000
C    -4.413000000    -4.189000000    -1.003000000
C    -4.233000000    -4.079000000    -2.413000000
H    -4.103000000    -5.034000000    -2.916000000
C    -4.311000000    -2.833000000    -3.062000000
O    -4.181000000    -2.779000000    -4.469000000
C    -4.106000000    -1.556000000    -5.176000000
C    -2.895000000    -1.112000000    -5.614000000
H    -1.956000000    -1.658000000    -5.579000000
C    -5.242000000    -0.890000000    -5.344000000
H    -6.201000000    -1.273000000    -5.004000000
C    -5.241000000     0.391000000    -5.893000000
H    -6.158000000     0.972000000    -5.948000000
C    -4.061000000     0.867000000    -6.416000000
H    -3.988000000     1.867000000    -6.836000000
C    -2.902000000     0.062000000    -6.343000000
O    -1.691000000     0.525000000    -6.855000000
C    -0.751000000     1.071000000    -6.026000000
C     0.477000000     0.477000000    -6.101000000
H     0.747000000    -0.228000000    -6.883000000
C     1.448000000     0.777000000    -5.183000000
O     2.705000000     0.242000000    -5.197000000
C     3.795000000     0.995000000    -4.798000000
C     4.761000000     0.575000000    -3.880000000
H     4.540000000    -0.272000000    -3.236000000
C     4.086000000     2.149000000    -5.533000000
H     3.353000000     2.454000000    -6.276000000
C     5.325000000     2.834000000    -5.349000000
H     5.540000000     3.674000000    -6.004000000
C     6.208000000     2.440000000    -4.339000000
H     7.089000000     3.069000000    -4.240000000
C     5.965000000     1.276000000    -3.604000000
O     6.780000000     0.893000000    -2.549000000
C     6.305000000     0.724000000    -1.244000000
C     6.971000000    -0.236000000    -0.459000000
H     7.802000000    -0.801000000    -0.872000000
C     6.545000000    -0.466000000     0.808000000
O     7.083000000    -1.462000000     1.594000000
C     6.249000000    -2.194000000     2.395000000
C     6.675000000    -2.605000000     3.648000000
H     7.677000000    -2.303000000     3.943000000
C     5.988000000    -3.549000000     4.339000000
H     6.333000000    -3.840000000     5.327000000
C     4.793000000    -4.115000000     3.889000000
H     4.168000000    -4.845000000     4.397000000
C     4.330000000    -3.753000000     2.593000000
C     5.055000000    -2.802000000     1.847000000
H     4.765000000    -2.418000000     0.872000000
C     1.844000000    -1.094000000    -1.448000000
H     2.592000000    -0.858000000    -2.201000000
C     1.359000000    -0.004000000    -0.783000000
H     1.719000000     1.001000000    -0.990000000
C     0.336000000    -0.150000000     0.131000000
C    -0.394000000     1.054000000     0.744000000
H    -1.189000000     1.248000000     0.020000000
H    -0.938000000     0.796000000     1.655000000
H     0.219000000     1.957000000     0.768000000
C    -0.141000000    -1.427000000     0.392000000
H    -0.876000000    -1.611000000     1.171000000
C     0.334000000    -2.558000000    -0.275000000
H    -0.103000000    -3.531000000    -0.065000000
C     1.390000000    -2.392000000    -1.197000000
C     1.880000000    -3.620000000    -1.934000000
O     1.528000000    -4.744000000    -1.675000000
O     2.823000000    -3.450000000    -2.684000000
O     0.922000000    -8.771000000    -0.431000000
H     0.346000000    -9.535000000    -0.451000000
H     1.308000000    -8.785000000     0.445000000
O    -2.975000000    -7.879000000    -3.129000000
H    -2.633000000    -8.353000000    -3.887000000
H    -2.274000000    -7.273000000    -2.889000000
O     2.875000000    -6.356000000    -0.259000000
H     2.501000000    -5.711000000    -0.861000000
H     2.199000000    -7.029000000    -0.180000000
O    -1.050000000    -4.340000000    -3.825000000
H    -0.309000000    -4.896000000    -3.585000000
H    -0.648000000    -3.553000000    -4.194000000
O     3.770000000    -5.255000000    -6.323000000
H     4.167000000    -4.738000000    -5.622000000
H     4.490000000    -5.430000000    -6.929000000
O     4.878000000    -4.766000000    -1.718000000
H     4.539000000    -5.122000000    -0.897000000
H     4.130000000    -4.315000000    -2.110000000
O     2.300000000    -6.195000000    -3.700000000
H     2.566000000    -5.743000000    -4.501000000
H     2.057000000    -5.492000000    -3.098000000
O     0.801000000    -2.535000000    -4.626000000
H     1.584000000    -2.856000000    -4.178000000
H     0.953000000    -1.596000000    -4.732000000
O     4.153000000    -8.088000000    -2.318000000
H     3.598000000    -7.938000000    -3.083000000
H     4.145000000    -7.254000000    -1.848000000
O    -0.626000000    -6.785000000    -1.758000000
H    -0.210000000    -7.499000000    -1.274000000
H    -0.182000000    -5.996000000    -1.448000000
O     7.375000000    -3.959000000    -0.999000000
H     7.601000000    -4.888000000    -0.968000000
H     6.525000000    -3.934000000    -1.440000000
O     5.399000000    -6.877000000     1.434000000
H     4.750000000    -7.019000000     0.744000000
H     5.001000000    -6.222000000     2.006000000
O    -2.775000000    -5.173000000    -5.717000000
H    -3.544000000    -5.587000000    -5.325000000
H    -2.268000000    -4.855000000    -4.971000000
O     1.445000000    -8.880000000    -3.159000000
H     1.814000000    -8.000000000    -3.237000000
H     1.461000000    -9.064000000    -2.220000000
O     1.297000000    -4.784000000    -6.698000000
H     2.235000000    -4.952000000    -6.608000000
H     1.202000000    -3.850000000    -6.512000000
O     4.407000000    -1.452000000    -7.419000000
H     4.343000000    -2.048000000    -6.673000000
H     4.264000000    -2.011000000    -8.184000000
O     4.576000000    -2.846000000    -4.943000000
H     4.350000000    -2.838000000    -4.013000000
H     5.523000000    -2.982000000    -4.958000000
O     6.903000000    -3.958000000    -4.076000000
H     7.435000000    -4.713000000    -4.328000000
H     6.257000000    -4.313000000    -3.465000000
O    -0.328000000    -6.896000000    -5.697000000
H    -1.068000000    -6.292000000    -5.627000000
H     0.396000000    -6.351000000    -6.005000000
