218
-1474.04347
C    -3.842000000    -2.064000000     3.348000000
H    -4.476000000    -2.535000000     2.601000000
C    -3.543000000    -0.721000000     3.251000000
C    -2.859000000    -0.067000000     4.321000000
H    -2.706000000     1.006000000     4.236000000
C    -3.857000000     0.016000000     1.966000000
O    -4.947000000    -0.564000000     1.230000000
H    -2.959000000     0.013000000     1.331000000
O    -4.172000000     1.428000000     2.197000000
C    -3.662000000     2.331000000     1.360000000
C    -2.666000000     3.145000000     1.842000000
H    -2.362000000     2.972000000     2.871000000
C    -1.944000000     4.036000000     1.091000000
O    -0.797000000     4.592000000     1.554000000
C    -2.307000000     4.235000000    -0.245000000
C    -1.669000000     5.260000000    -1.155000000
H    -2.436000000     5.538000000    -1.880000000
C    -0.434000000     4.700000000    -1.895000000
C    -0.613000000     3.843000000    -3.045000000
H    -1.582000000     3.674000000    -3.509000000
H    -1.404000000     6.223000000    -0.712000000
C    -3.431000000     3.521000000    -0.785000000
H    -3.582000000     3.507000000    -1.861000000
C    -4.073000000     2.562000000     0.002000000
C    -5.249000000     1.724000000    -0.554000000
H    -5.743000000     2.301000000    -1.338000000
H    -5.962000000     1.499000000     0.242000000
C    -4.790000000     0.380000000    -1.056000000
C    -4.336000000     0.191000000    -2.363000000
H    -4.284000000     1.093000000    -2.967000000
C    -4.761000000    -0.745000000    -0.163000000
C    -4.150000000    -1.912000000    -0.597000000
H    -4.061000000    -2.739000000     0.103000000
C    -3.646000000    -2.058000000    -1.843000000
O    -2.975000000    -3.232000000    -2.189000000
C    -1.543000000    -3.176000000    -2.366000000
C    -0.995000000    -4.491000000    -1.854000000
C     0.265000000    -4.976000000    -2.275000000
H     0.888000000    -4.332000000    -2.891000000
C    -1.609000000    -5.114000000    -0.769000000
H    -2.572000000    -4.764000000    -0.407000000
O    -1.234000000    -3.031000000    -3.793000000
H    -1.041000000    -2.449000000    -1.710000000
C    -3.850000000    -1.045000000    -2.826000000
C    -3.353000000    -1.104000000    -4.237000000
H    -3.882000000    -0.430000000    -4.914000000
H    -3.585000000    -2.128000000    -4.539000000
C    -1.861000000    -0.784000000    -4.283000000
C    -1.517000000     0.523000000    -4.536000000
H    -2.236000000     1.327000000    -4.671000000
C    -0.877000000    -1.773000000    -4.187000000
C     0.477000000    -1.418000000    -4.351000000
H     1.293000000    -2.088000000    -4.091000000
C     0.865000000    -0.045000000    -4.437000000
O     2.169000000     0.272000000    -4.387000000
C     2.585000000     0.972000000    -3.207000000
C     3.831000000     0.336000000    -2.545000000
C     4.006000000    -1.061000000    -2.516000000
H     3.174000000    -1.666000000    -2.867000000
C     4.822000000     1.136000000    -1.944000000
H     4.727000000     2.204000000    -1.763000000
O     2.745000000     2.400000000    -3.521000000
H     1.743000000     0.932000000    -2.500000000
C    -0.145000000     0.889000000    -4.599000000
C     0.237000000     2.373000000    -4.991000000
H    -0.471000000     2.948000000    -5.592000000
H     1.120000000     2.294000000    -5.628000000
C     0.477000000     3.193000000    -3.686000000
C     1.699000000     3.163000000    -3.027000000
C     1.843000000     3.823000000    -1.776000000
H     2.803000000     3.593000000    -1.321000000
C     0.786000000     4.523000000    -1.239000000
O     0.990000000     4.907000000     0.028000000
C     0.496000000     4.067000000     1.051000000
H     0.308000000     3.032000000     0.729000000
C     1.475000000     4.071000000     2.241000000
C     1.061000000     3.706000000     3.528000000
H     0.100000000     3.219000000     3.669000000
C     2.875000000     4.103000000     2.004000000
H     3.230000000     4.289000000     0.993000000
C     3.780000000     4.158000000     3.045000000
O     5.144000000     4.256000000     2.798000000
C     3.317000000     3.984000000     4.320000000
H     3.951000000     4.115000000     5.193000000
C     1.987000000     3.613000000     4.557000000
O     1.648000000     3.196000000     5.808000000
C     0.415000000     2.789000000     6.181000000
C     0.043000000     1.435000000     6.230000000
H     0.889000000     0.791000000     6.005000000
C    -0.573000000     3.737000000     6.455000000
H    -0.297000000     4.758000000     6.205000000
C    -1.851000000     3.338000000     6.889000000
H    -2.577000000     4.123000000     7.088000000
C    -2.198000000     1.986000000     6.926000000
H    -3.258000000     1.763000000     7.010000000
C    -1.245000000     1.039000000     6.598000000
O    -1.561000000    -0.320000000     6.396000000
C    -2.326000000    -0.888000000     5.362000000
C    -2.676000000    -2.228000000     5.503000000
H    -2.265000000    -2.864000000     6.284000000
C    -3.373000000    -2.824000000     4.441000000
O    -3.615000000    -4.167000000     4.521000000
C    -3.748000000    -4.920000000     3.381000000
C    -2.650000000    -5.444000000     2.706000000
H    -1.666000000    -5.114000000     3.030000000
C    -5.049000000    -5.205000000     2.887000000
H    -5.936000000    -4.742000000     3.311000000
C    -5.221000000    -6.116000000     1.811000000
H    -6.203000000    -6.440000000     1.474000000
C    -4.089000000    -6.666000000     1.179000000
H    -4.184000000    -7.277000000     0.286000000
C    -2.815000000    -6.307000000     1.582000000
O    -1.697000000    -6.847000000     0.975000000
C    -1.078000000    -6.266000000    -0.166000000
C     0.126000000    -6.743000000    -0.694000000
H     0.380000000    -7.729000000    -0.314000000
C     0.788000000    -6.163000000    -1.760000000
O     2.103000000    -6.562000000    -1.988000000
C     3.085000000    -5.795000000    -2.619000000
C     3.647000000    -4.793000000    -1.838000000
H     3.618000000    -4.916000000    -0.758000000
C     3.450000000    -5.999000000    -3.941000000
H     3.108000000    -6.866000000    -4.500000000
C     4.160000000    -4.986000000    -4.596000000
H     4.357000000    -4.955000000    -5.665000000
C     4.680000000    -3.937000000    -3.829000000
H     5.333000000    -3.269000000    -4.385000000
C     4.510000000    -3.886000000    -2.472000000
O     5.247000000    -3.048000000    -1.726000000
C     5.114000000    -1.631000000    -1.864000000
C     6.164000000    -0.824000000    -1.429000000
H     7.101000000    -1.172000000    -1.002000000
C     5.923000000     0.550000000    -1.322000000
O     6.855000000     1.355000000    -0.646000000
C     6.572000000     2.702000000    -0.278000000
C     7.128000000     3.802000000    -0.949000000
H     7.669000000     3.681000000    -1.884000000
C     6.867000000     5.058000000    -0.430000000
H     7.351000000     5.914000000    -0.892000000
C     6.236000000     5.175000000     0.813000000
H     6.073000000     6.172000000     1.215000000
C     5.751000000     4.087000000     1.557000000
C     5.890000000     2.840000000     0.969000000
H     5.620000000     1.935000000     1.507000000
C     1.764000000    -2.685000000     0.960000000
H     1.598000000    -3.759000000     0.948000000
C     0.758000000    -1.846000000     0.608000000
H    -0.219000000    -2.244000000     0.345000000
C     0.929000000    -0.476000000     0.505000000
C    -0.223000000     0.316000000    -0.141000000
H    -0.504000000    -0.221000000    -1.050000000
H    -1.107000000     0.522000000     0.467000000
H     0.157000000     1.284000000    -0.473000000
C     2.155000000    -0.001000000     0.956000000
H     2.267000000     1.073000000     0.832000000
C     3.135000000    -0.825000000     1.559000000
H     4.080000000    -0.476000000     1.968000000
C     2.961000000    -2.243000000     1.463000000
C     4.026000000    -3.144000000     2.028000000
O     5.164000000    -2.700000000     2.173000000
O     3.712000000    -4.244000000     2.491000000
O     4.230000000    -8.194000000    -1.083000000
H     3.480000000    -8.404000000    -1.638000000
H     4.056000000    -7.306000000    -0.771000000
O     6.956000000    -4.572000000     3.155000000
H     6.417000000    -3.845000000     2.845000000
H     6.789000000    -5.277000000     2.529000000
O     6.484000000    -2.725000000     5.183000000
H     6.934000000    -3.132000000     4.442000000
H     6.612000000    -3.338000000     5.907000000
O     2.824000000    -0.588000000     7.438000000
H     2.852000000    -0.968000000     6.560000000
H     3.133000000    -1.288000000     8.012000000
O     2.958000000    -8.000000000     4.971000000
H     3.677000000    -7.376000000     4.869000000
H     3.187000000    -8.504000000     5.752000000
O     9.178000000    -4.637000000     4.707000000
H     8.345000000    -4.774000000     4.256000000
H     9.785000000    -5.239000000     4.277000000
O     1.635000000    -1.114000000     4.480000000
H     2.481000000    -1.529000000     4.649000000
H     1.670000000    -0.866000000     3.556000000
O     0.239000000    -3.403000000     5.578000000
H     0.844000000    -3.917000000     5.042000000
H     0.619000000    -2.524000000     5.590000000
O     9.694000000    -3.708000000     1.679000000
H     8.743000000    -3.650000000     1.585000000
H     9.900000000    -4.620000000     1.473000000
O     6.464000000    -0.414000000     2.889000000
H     5.994000000    -1.157000000     2.511000000
H     5.815000000     0.027000000     3.438000000
O     7.121000000    -3.055000000     0.692000000
H     6.700000000    -3.524000000    -0.029000000
H     6.402000000    -2.829000000     1.282000000
O     6.738000000    -5.725000000    -0.870000000
H     6.131000000    -5.906000000    -1.587000000
H     7.416000000    -5.174000000    -1.262000000
O     4.805000000    -5.995000000     4.266000000
H     5.727000000    -5.824000000     4.071000000
H     4.345000000    -5.222000000     3.939000000
O     6.405000000    -6.593000000     1.671000000
H     5.450000000    -6.645000000     1.640000000
H     6.667000000    -6.447000000     0.762000000
O     8.865000000     0.615000000     2.137000000
H     9.040000000    -0.199000000     2.610000000
H     7.930000000     0.578000000     1.936000000
O     1.559000000    -5.177000000     4.107000000
H     2.166000000    -4.794000000     3.474000000
H     1.820000000    -6.096000000     4.163000000
O     4.006000000    -4.334000000     7.247000000
H     4.351000000    -3.526000000     7.626000000
H     4.467000000    -5.032000000     7.712000000
O     3.861000000    -2.305000000     5.286000000
H     3.799000000    -3.141000000     5.748000000
H     4.787000000    -2.069000000     5.341000000
O     3.772000000    -6.623000000     1.370000000
H     3.031000000    -7.065000000     1.784000000
H     3.760000000    -5.739000000     1.739000000
