218
-1477.85411
C     4.737000000    -1.557000000    -1.573000000
H     5.230000000    -0.959000000    -0.811000000
C     3.713000000    -0.956000000    -2.340000000
C     2.971000000    -1.743000000    -3.208000000
H     2.235000000    -1.264000000    -3.848000000
C     3.355000000     0.511000000    -2.184000000
O     4.489000000     1.205000000    -1.681000000
H     2.486000000     0.473000000    -1.511000000
O     3.025000000     1.057000000    -3.530000000
C     2.004000000     2.002000000    -3.665000000
C     0.836000000     1.562000000    -4.254000000
H     0.826000000     0.552000000    -4.656000000
C    -0.279000000     2.372000000    -4.254000000
O    -1.448000000     1.713000000    -4.629000000
C    -0.281000000     3.641000000    -3.621000000
C    -1.608000000     4.364000000    -3.431000000
H    -1.408000000     5.424000000    -3.258000000
C    -2.325000000     3.876000000    -2.115000000
C    -2.025000000     4.566000000    -0.912000000
H    -1.289000000     5.365000000    -0.933000000
H    -2.194000000     4.215000000    -4.341000000
C     0.929000000     4.072000000    -3.015000000
H     0.906000000     5.046000000    -2.534000000
C     2.066000000     3.264000000    -3.027000000
C     3.302000000     3.809000000    -2.364000000
H     3.156000000     4.888000000    -2.278000000
H     4.184000000     3.629000000    -2.981000000
C     3.481000000     3.342000000    -0.913000000
C     2.995000000     4.057000000     0.120000000
H     2.448000000     4.979000000    -0.057000000
C     4.165000000     2.093000000    -0.707000000
C     4.232000000     1.603000000     0.567000000
H     4.611000000     0.591000000     0.685000000
C     3.704000000     2.308000000     1.566000000
O     3.690000000     1.669000000     2.778000000
C     2.441000000     1.083000000     3.235000000
C     2.674000000    -0.285000000     3.877000000
C     1.629000000    -0.763000000     4.671000000
H     0.755000000    -0.208000000     5.003000000
C     3.735000000    -1.095000000     3.445000000
H     4.439000000    -0.670000000     2.734000000
O     1.832000000     1.834000000     4.229000000
H     1.753000000     0.975000000     2.384000000
C     3.138000000     3.571000000     1.458000000
C     2.575000000     4.326000000     2.738000000
H     2.614000000     5.392000000     2.501000000
H     3.170000000     4.122000000     3.630000000
C     1.115000000     3.803000000     2.911000000
C     0.102000000     4.472000000     2.246000000
H     0.321000000     5.259000000     1.528000000
C     0.864000000     2.674000000     3.704000000
C    -0.527000000     2.390000000     3.918000000
H    -0.785000000     1.564000000     4.576000000
C    -1.532000000     3.083000000     3.260000000
O    -2.822000000     2.563000000     3.348000000
C    -3.266000000     1.786000000     2.221000000
C    -3.914000000     0.457000000     2.575000000
C    -3.658000000    -0.078000000     3.860000000
H    -3.170000000     0.543000000     4.607000000
C    -4.618000000    -0.304000000     1.658000000
H    -4.716000000     0.026000000     0.627000000
O    -4.130000000     2.601000000     1.460000000
H    -2.412000000     1.487000000     1.594000000
C    -1.261000000     4.163000000     2.377000000
C    -2.248000000     4.878000000     1.583000000
H    -1.826000000     5.873000000     1.424000000
H    -3.070000000     5.064000000     2.277000000
C    -2.637000000     4.170000000     0.303000000
C    -3.573000000     3.108000000     0.313000000
C    -3.725000000     2.351000000    -0.894000000
H    -4.299000000     1.428000000    -0.919000000
C    -3.230000000     2.789000000    -2.094000000
O    -3.336000000     1.936000000    -3.188000000
C    -2.266000000     1.049000000    -3.568000000
H    -1.596000000     0.797000000    -2.733000000
C    -2.823000000    -0.346000000    -4.043000000
C    -2.066000000    -1.224000000    -4.815000000
H    -1.033000000    -1.025000000    -5.091000000
C    -4.084000000    -0.791000000    -3.594000000
H    -4.712000000    -0.154000000    -2.977000000
C    -4.676000000    -1.994000000    -4.081000000
O    -5.988000000    -2.304000000    -3.619000000
C    -3.932000000    -2.784000000    -4.961000000
H    -4.294000000    -3.770000000    -5.241000000
C    -2.600000000    -2.487000000    -5.245000000
O    -1.877000000    -3.423000000    -5.962000000
C    -0.462000000    -3.356000000    -6.216000000
C     0.393000000    -3.496000000    -5.138000000
H     0.026000000    -3.689000000    -4.133000000
C     0.011000000    -3.358000000    -7.500000000
H    -0.629000000    -3.251000000    -8.372000000
C     1.412000000    -3.576000000    -7.723000000
H     1.752000000    -3.549000000    -8.755000000
C     2.184000000    -3.752000000    -6.602000000
H     3.231000000    -4.034000000    -6.668000000
C     1.716000000    -3.673000000    -5.289000000
O     2.610000000    -4.000000000    -4.276000000
C     3.241000000    -3.160000000    -3.374000000
C     4.332000000    -3.715000000    -2.659000000
H     4.649000000    -4.730000000    -2.886000000
C     5.045000000    -2.849000000    -1.797000000
O     6.032000000    -3.515000000    -1.021000000
C     6.335000000    -3.091000000     0.273000000
C     5.432000000    -3.316000000     1.342000000
H     4.455000000    -3.729000000     1.104000000
C     7.576000000    -2.600000000     0.576000000
H     8.338000000    -2.574000000    -0.199000000
C     7.957000000    -2.341000000     1.942000000
H     8.924000000    -1.979000000     2.281000000
C     7.057000000    -2.582000000     2.952000000
H     7.191000000    -2.345000000     4.004000000
C     5.771000000    -2.988000000     2.631000000
O     4.859000000    -3.299000000     3.650000000
C     3.849000000    -2.440000000     3.939000000
C     2.826000000    -2.958000000     4.695000000
H     2.700000000    -3.991000000     5.008000000
C     1.743000000    -2.097000000     5.024000000
O     0.778000000    -2.753000000     5.816000000
C    -0.346000000    -2.211000000     6.397000000
C    -1.538000000    -2.096000000     5.635000000
H    -1.388000000    -2.324000000     4.583000000
C    -0.374000000    -2.097000000     7.772000000
H     0.563000000    -2.195000000     8.314000000
C    -1.671000000    -1.973000000     8.372000000
H    -1.724000000    -1.924000000     9.456000000
C    -2.871000000    -1.856000000     7.582000000
H    -3.816000000    -1.701000000     8.095000000
C    -2.736000000    -1.828000000     6.168000000
O    -3.897000000    -1.825000000     5.419000000
C    -3.982000000    -1.353000000     4.152000000
C    -4.642000000    -2.165000000     3.198000000
H    -4.976000000    -3.170000000     3.446000000
C    -5.011000000    -1.601000000     1.959000000
O    -5.617000000    -2.483000000     1.144000000
C    -6.257000000    -2.044000000     0.028000000
C    -7.222000000    -1.067000000     0.151000000
H    -7.450000000    -0.671000000     1.137000000
C    -7.957000000    -0.678000000    -0.939000000
H    -8.769000000     0.030000000    -0.800000000
C    -7.657000000    -1.197000000    -2.233000000
H    -8.206000000    -0.933000000    -3.132000000
C    -6.469000000    -1.939000000    -2.351000000
C    -5.755000000    -2.442000000    -1.247000000
H    -4.922000000    -3.136000000    -1.332000000
C    -0.160000000    -2.596000000    -1.519000000
H    -0.875000000    -3.128000000    -2.142000000
C    -0.325000000    -1.294000000    -1.136000000
H    -1.222000000    -0.844000000    -1.553000000
C     0.553000000    -0.681000000    -0.281000000
C     0.189000000     0.739000000     0.142000000
H     0.011000000     0.778000000     1.219000000
H     0.998000000     1.458000000    -0.004000000
H    -0.715000000     1.027000000    -0.400000000
C     1.569000000    -1.427000000     0.264000000
H     2.154000000    -0.882000000     1.000000000
C     1.752000000    -2.810000000    -0.073000000
H     2.479000000    -3.438000000     0.434000000
C     0.949000000    -3.360000000    -1.029000000
C     1.047000000    -4.804000000    -1.331000000
O     1.804000000    -5.484000000    -0.674000000
O     0.158000000    -5.338000000    -1.961000000
O    -2.721000000    -9.136000000     0.792000000
H    -2.419000000    -9.384000000    -0.082000000
H    -1.971000000    -8.696000000     1.190000000
O     4.217000000    -6.672000000     0.184000000
H     3.941000000    -7.583000000     0.284000000
H     3.481000000    -6.246000000    -0.256000000
O     3.827000000    -7.289000000    -4.696000000
H     3.526000000    -6.382000000    -4.639000000
H     4.522000000    -7.269000000    -5.353000000
O    -1.063000000    -6.980000000    -5.898000000
H    -0.171000000    -6.851000000    -6.220000000
H    -1.008000000    -7.761000000    -5.347000000
O     1.163000000    -7.992000000    -2.597000000
H     2.032000000    -7.593000000    -2.655000000
H     0.616000000    -7.316000000    -2.198000000
O     3.595000000    -9.301000000    -0.282000000
H     3.957000000    -9.377000000    -1.165000000
H     3.063000000   -10.089000000    -0.172000000
O    -4.396000000    -5.412000000    -2.459000000
H    -4.304000000    -5.633000000    -1.532000000
H    -3.496000000    -5.337000000    -2.777000000
O    -2.784000000    -8.046000000    -1.936000000
H    -2.633000000    -7.101000000    -1.934000000
H    -1.907000000    -8.429000000    -1.928000000
O    -1.925000000    -5.812000000    -3.348000000
H    -1.809000000    -5.910000000    -4.293000000
H    -1.049000000    -5.611000000    -3.019000000
O     3.666000000    -5.784000000     2.780000000
H     3.847000000    -5.962000000     1.857000000
H     4.525000000    -5.606000000     3.163000000
O     1.923000000    -7.619000000     4.096000000
H     2.397000000    -7.376000000     4.891000000
H     2.396000000    -7.175000000     3.391000000
O     1.264000000    -9.898000000     1.891000000
H     1.955000000    -9.289000000     1.632000000
H     0.487000000    -9.348000000     1.997000000
O    -3.464000000    -5.325000000     2.216000000
H    -4.372000000    -5.602000000     2.091000000
H    -3.183000000    -5.029000000     1.350000000
O    -1.854000000    -5.137000000     0.024000000
H    -1.344000000    -5.356000000    -0.756000000
H    -1.222000000    -5.176000000     0.742000000
O     6.775000000    -6.182000000    -0.663000000
H     6.527000000    -5.265000000    -0.776000000
H     6.083000000    -6.551000000    -0.114000000
O    -0.676000000    -7.755000000     2.232000000
H    -0.685000000    -6.825000000     2.005000000
H    -0.738000000    -7.769000000     3.187000000
O     0.494000000    -5.398000000     1.550000000
H     1.041000000    -5.124000000     2.286000000
H     1.107000000    -5.506000000     0.823000000
O    -0.398000000   -10.027000000    -1.215000000
H    -0.069000000   -10.901000000    -1.425000000
H     0.358000000    -9.452000000    -1.329000000
O    -0.421000000    -9.316000000    -4.267000000
H    -0.470000000   -10.210000000    -3.929000000
H     0.051000000    -8.830000000    -3.590000000
