218
-1473.98906
C     5.518000000    -1.472000000    -0.156000000
H     5.861000000    -0.802000000     0.628000000
C     4.598000000    -0.987000000    -1.049000000
C     4.091000000    -1.842000000    -2.039000000
H     3.343000000    -1.525000000    -2.761000000
C     4.156000000     0.518000000    -1.095000000
O     4.824000000     1.300000000    -0.118000000
H     3.088000000     0.429000000    -0.847000000
O     4.140000000     1.082000000    -2.356000000
C     3.065000000     1.796000000    -2.799000000
C     2.084000000     1.242000000    -3.700000000
H     2.221000000     0.199000000    -3.975000000
C     0.897000000     1.932000000    -4.106000000
O    -0.079000000     1.275000000    -4.755000000
C     0.666000000     3.201000000    -3.580000000
C    -0.710000000     3.880000000    -3.766000000
H    -0.523000000     4.955000000    -3.729000000
C    -1.765000000     3.325000000    -2.843000000
C    -1.990000000     4.068000000    -1.725000000
H    -1.477000000     5.020000000    -1.615000000
H    -0.953000000     3.683000000    -4.812000000
C     1.702000000     3.788000000    -2.762000000
H     1.501000000     4.761000000    -2.321000000
C     2.886000000     3.119000000    -2.378000000
C     3.836000000     3.812000000    -1.425000000
H     3.666000000     4.890000000    -1.468000000
H     4.850000000     3.649000000    -1.796000000
C     3.629000000     3.398000000    -0.012000000
C     2.814000000     4.238000000     0.743000000
H     2.494000000     5.203000000     0.359000000
C     4.127000000     2.228000000     0.550000000
C     3.802000000     1.881000000     1.861000000
H     4.202000000     0.972000000     2.302000000
C     2.893000000     2.643000000     2.520000000
O     2.456000000     2.167000000     3.723000000
C     1.208000000     1.479000000     3.670000000
C     1.321000000     0.144000000     4.278000000
C     0.174000000    -0.551000000     4.594000000
H    -0.817000000    -0.121000000     4.468000000
C     2.521000000    -0.604000000     4.334000000
H     3.420000000    -0.129000000     3.949000000
O     0.234000000     2.245000000     4.327000000
H     0.912000000     1.285000000     2.629000000
C     2.418000000     3.819000000     2.007000000
C     1.332000000     4.637000000     2.831000000
H     1.230000000     5.642000000     2.416000000
H     1.583000000     4.726000000     3.890000000
C    -0.090000000     3.970000000     2.668000000
C    -0.919000000     4.508000000     1.659000000
H    -0.523000000     5.302000000     1.032000000
C    -0.581000000     2.969000000     3.517000000
C    -1.912000000     2.502000000     3.381000000
H    -2.280000000     1.576000000     3.817000000
C    -2.729000000     3.118000000     2.453000000
O    -3.907000000     2.491000000     2.214000000
C    -4.043000000     1.535000000     1.096000000
C    -4.840000000     0.305000000     1.413000000
C    -5.016000000    -0.111000000     2.745000000
H    -4.726000000     0.551000000     3.556000000
C    -5.259000000    -0.545000000     0.417000000
H    -5.109000000    -0.286000000    -0.628000000
O    -4.623000000     2.163000000    -0.065000000
H    -3.001000000     1.274000000     0.860000000
C    -2.235000000     4.096000000     1.541000000
C    -3.086000000     4.657000000     0.396000000
H    -2.819000000     5.694000000     0.183000000
H    -4.149000000     4.736000000     0.633000000
C    -2.947000000     3.768000000    -0.812000000
C    -3.673000000     2.578000000    -1.071000000
C    -3.518000000     1.753000000    -2.185000000
H    -4.222000000     0.949000000    -2.382000000
C    -2.540000000     2.189000000    -3.073000000
O    -2.306000000     1.314000000    -4.120000000
C    -1.062000000     0.600000000    -4.033000000
H    -0.670000000     0.432000000    -3.019000000
C    -1.390000000    -0.827000000    -4.526000000
C    -0.358000000    -1.707000000    -4.970000000
H     0.660000000    -1.339000000    -4.870000000
C    -2.642000000    -1.404000000    -4.426000000
H    -3.356000000    -0.879000000    -3.798000000
C    -2.909000000    -2.698000000    -4.798000000
O    -4.169000000    -3.250000000    -4.680000000
C    -1.930000000    -3.471000000    -5.360000000
H    -2.099000000    -4.463000000    -5.770000000
C    -0.638000000    -2.950000000    -5.472000000
O     0.365000000    -3.795000000    -5.971000000
C     1.717000000    -3.505000000    -5.724000000
C     2.328000000    -4.039000000    -4.599000000
H     1.721000000    -4.589000000    -3.885000000
C     2.404000000    -2.600000000    -6.543000000
H     1.831000000    -2.121000000    -7.333000000
C     3.738000000    -2.342000000    -6.290000000
H     4.139000000    -1.460000000    -6.784000000
C     4.357000000    -2.948000000    -5.123000000
H     5.332000000    -2.546000000    -4.861000000
C     3.571000000    -3.666000000    -4.214000000
O     4.027000000    -4.132000000    -2.972000000
C     4.431000000    -3.207000000    -2.051000000
C     5.282000000    -3.664000000    -1.004000000
H     5.718000000    -4.657000000    -1.081000000
C     5.825000000    -2.809000000    -0.031000000
O     6.405000000    -3.359000000     1.127000000
C     6.251000000    -2.856000000     2.376000000
C     5.079000000    -3.026000000     3.090000000
H     4.266000000    -3.575000000     2.623000000
C     7.262000000    -1.990000000     2.915000000
H     8.178000000    -1.870000000     2.343000000
C     7.011000000    -1.350000000     4.129000000
H     7.852000000    -0.729000000     4.425000000
C     5.831000000    -1.607000000     4.860000000
H     5.608000000    -1.127000000     5.809000000
C     4.838000000    -2.455000000     4.323000000
O     3.692000000    -2.616000000     4.978000000
C     2.538000000    -1.950000000     4.822000000
C     1.328000000    -2.603000000     5.069000000
H     1.321000000    -3.644000000     5.382000000
C     0.156000000    -1.894000000     4.989000000
O    -1.064000000    -2.511000000     5.150000000
C    -2.215000000    -2.026000000     5.699000000
C    -3.254000000    -1.944000000     4.785000000
H    -3.063000000    -2.271000000     3.766000000
C    -2.388000000    -1.667000000     7.061000000
H    -1.514000000    -1.804000000     7.692000000
C    -3.613000000    -1.086000000     7.461000000
H    -3.786000000    -0.806000000     8.498000000
C    -4.684000000    -1.130000000     6.533000000
H    -5.688000000    -0.822000000     6.816000000
C    -4.514000000    -1.578000000     5.207000000
O    -5.597000000    -1.695000000     4.368000000
C    -5.546000000    -1.383000000     3.016000000
C    -5.981000000    -2.231000000     2.026000000
H    -6.288000000    -3.249000000     2.248000000
C    -5.833000000    -1.796000000     0.665000000
O    -6.025000000    -2.811000000    -0.275000000
C    -6.069000000    -2.544000000    -1.633000000
C    -7.199000000    -1.995000000    -2.240000000
H    -8.014000000    -1.553000000    -1.674000000
C    -7.278000000    -1.772000000    -3.564000000
H    -8.131000000    -1.285000000    -4.029000000
C    -6.201000000    -2.150000000    -4.324000000
H    -6.065000000    -1.812000000    -5.348000000
C    -5.079000000    -2.703000000    -3.807000000
C    -5.026000000    -2.943000000    -2.447000000
H    -4.118000000    -3.363000000    -2.020000000
C    -1.664000000    -2.209000000    -0.056000000
H    -2.527000000    -2.726000000    -0.468000000
C    -1.480000000    -0.870000000    -0.333000000
H    -2.213000000    -0.406000000    -0.988000000
C    -0.378000000    -0.149000000     0.181000000
C    -0.266000000     1.320000000    -0.036000000
H     0.723000000     1.520000000    -0.451000000
H    -1.083000000     1.682000000    -0.664000000
H    -0.306000000     1.741000000     0.971000000
C     0.612000000    -0.835000000     0.864000000
H     1.485000000    -0.237000000     1.114000000
C     0.456000000    -2.179000000     1.125000000
H     1.146000000    -2.810000000     1.680000000
C    -0.650000000    -2.910000000     0.590000000
C    -0.855000000    -4.370000000     0.876000000
O    -0.109000000    -4.943000000     1.685000000
O    -1.792000000    -5.034000000     0.399000000
O     2.535000000    -9.793000000     0.658000000
H     2.410000000   -10.097000000     1.557000000
H     2.777000000    -8.871000000     0.748000000
O    -0.487000000    -5.512000000     5.301000000
H    -0.401000000    -6.463000000     5.368000000
H    -0.639000000    -5.351000000     4.369000000
O    -4.593000000    -6.300000000    -1.411000000
H    -3.762000000    -5.825000000    -1.425000000
H    -4.398000000    -7.136000000    -1.835000000
O     0.150000000   -10.103000000    -1.092000000
H     0.953000000   -10.392000000    -0.659000000
H    -0.011000000    -9.227000000    -0.739000000
O     2.225000000    -6.858000000     0.614000000
H     3.117000000    -6.524000000     0.714000000
H     1.721000000    -6.396000000     1.284000000
O    -3.747000000    -6.289000000    -4.286000000
H    -3.379000000    -5.818000000    -3.538000000
H    -4.395000000    -5.687000000    -4.652000000
O    -2.363000000    -5.313000000    -2.281000000
H    -2.105000000    -5.287000000    -1.359000000
H    -1.561000000    -5.106000000    -2.760000000
O     4.914000000    -6.304000000     1.154000000
H     5.388000000    -5.546000000     0.813000000
H     5.109000000    -6.307000000     2.091000000
O     2.362000000    -8.294000000    -2.181000000
H     1.499000000    -8.135000000    -1.797000000
H     2.941000000    -7.681000000    -1.728000000
O    -0.562000000    -9.262000000     1.821000000
H    -1.367000000    -9.662000000     2.151000000
H     0.141000000    -9.768000000     2.229000000
O     2.126000000    -4.723000000     2.946000000
H     1.302000000    -4.853000000     2.475000000
H     1.961000000    -3.970000000     3.513000000
O    -4.533000000    -8.270000000     2.478000000
H    -4.169000000    -7.512000000     2.020000000
H    -5.442000000    -8.315000000     2.182000000
O    -0.056000000    -7.454000000    -0.616000000
H    -0.820000000    -7.237000000    -0.083000000
H     0.694000000    -7.246000000    -0.058000000
O    -0.081000000    -6.414000000    -3.191000000
H     0.025000000    -6.859000000    -2.350000000
H    -0.497000000    -7.065000000    -3.756000000
O    -4.003000000    -5.453000000     4.014000000
H    -3.111000000    -5.799000000     4.029000000
H    -4.081000000    -5.027000000     3.160000000
O     2.819000000    -6.009000000     5.338000000
H     1.863000000    -6.018000000     5.382000000
H     3.017000000    -5.621000000     4.485000000
O    -1.817000000    -6.617000000     2.996000000
H    -1.398000000    -5.998000000     2.398000000
H    -1.313000000    -7.424000000     2.898000000
O    -4.258000000    -4.768000000     1.478000000
H    -3.378000000    -4.963000000     1.157000000
H    -4.739000000    -4.482000000     0.701000000
O    -2.830000000   -10.128000000     3.072000000
H    -3.323000000   -10.648000000     3.707000000
H    -3.402000000    -9.386000000     2.875000000
