218
-1465.83455
C     5.152000000    -1.174000000    -1.509000000
H     5.286000000    -0.807000000    -0.495000000
C     4.393000000    -0.428000000    -2.406000000
C     4.148000000    -0.981000000    -3.667000000
H     3.546000000    -0.471000000    -4.415000000
C     3.706000000     0.903000000    -1.959000000
O     4.541000000     1.583000000    -0.968000000
H     2.819000000     0.758000000    -1.325000000
O     3.535000000     1.715000000    -3.149000000
C     2.419000000     2.475000000    -3.302000000
C     1.396000000     2.041000000    -4.101000000
H     1.441000000     1.089000000    -4.624000000
C     0.203000000     2.682000000    -4.094000000
O    -0.894000000     1.904000000    -4.452000000
C    -0.014000000     3.800000000    -3.305000000
C    -1.414000000     4.409000000    -3.227000000
H    -1.392000000     5.501000000    -3.221000000
C    -2.119000000     3.859000000    -2.043000000
C    -1.995000000     4.416000000    -0.753000000
H    -1.355000000     5.276000000    -0.572000000
H    -2.007000000     4.151000000    -4.107000000
C     0.991000000     4.302000000    -2.512000000
H     0.741000000     5.129000000    -1.852000000
C     2.222000000     3.663000000    -2.545000000
C     3.348000000     4.140000000    -1.620000000
H     3.334000000     5.232000000    -1.612000000
H     4.294000000     3.907000000    -2.112000000
C     3.374000000     3.530000000    -0.230000000
C     2.615000000     4.121000000     0.777000000
H     2.159000000     5.055000000     0.457000000
C     4.003000000     2.320000000    -0.001000000
C     3.982000000     1.700000000     1.209000000
H     4.542000000     0.787000000     1.399000000
C     3.202000000     2.327000000     2.240000000
O     3.068000000     1.499000000     3.348000000
C     1.814000000     0.880000000     3.633000000
C     1.938000000    -0.566000000     4.078000000
C     0.929000000    -1.182000000     4.830000000
H     0.082000000    -0.624000000     5.219000000
C     2.993000000    -1.308000000     3.583000000
H     3.806000000    -0.880000000     3.003000000
O     1.156000000     1.696000000     4.644000000
H     1.160000000     0.922000000     2.750000000
C     2.486000000     3.478000000     2.014000000
C     1.928000000     4.245000000     3.151000000
H     1.974000000     5.312000000     2.923000000
H     2.595000000     4.110000000     4.005000000
C     0.497000000     3.766000000     3.434000000
C    -0.459000000     4.530000000     2.784000000
H    -0.131000000     5.329000000     2.124000000
C     0.149000000     2.570000000     4.098000000
C    -1.126000000     2.100000000     4.097000000
H    -1.431000000     1.212000000     4.644000000
C    -2.041000000     2.764000000     3.281000000
O    -3.254000000     2.137000000     3.167000000
C    -3.529000000     1.332000000     2.005000000
C    -4.220000000    -0.001000000     2.209000000
C    -3.970000000    -0.640000000     3.409000000
H    -3.262000000    -0.153000000     4.075000000
C    -5.075000000    -0.633000000     1.291000000
H    -5.353000000    -0.038000000     0.425000000
O    -4.317000000     2.175000000     1.166000000
H    -2.663000000     1.084000000     1.374000000
C    -1.777000000     3.987000000     2.640000000
C    -2.778000000     4.601000000     1.726000000
H    -2.564000000     5.671000000     1.754000000
H    -3.773000000     4.720000000     2.160000000
C    -2.784000000     4.000000000     0.345000000
C    -3.514000000     2.809000000     0.168000000
C    -3.575000000     2.154000000    -1.075000000
H    -3.981000000     1.147000000    -1.132000000
C    -2.927000000     2.763000000    -2.199000000
O    -2.831000000     1.923000000    -3.305000000
C    -1.583000000     1.235000000    -3.412000000
H    -1.096000000     1.289000000    -2.428000000
C    -1.907000000    -0.205000000    -3.749000000
C    -0.838000000    -1.032000000    -4.192000000
H     0.211000000    -0.746000000    -4.193000000
C    -3.221000000    -0.724000000    -3.718000000
H    -4.082000000    -0.119000000    -3.445000000
C    -3.557000000    -2.040000000    -4.105000000
O    -4.787000000    -2.657000000    -4.105000000
C    -2.495000000    -2.826000000    -4.543000000
H    -2.756000000    -3.817000000    -4.903000000
C    -1.171000000    -2.352000000    -4.487000000
O    -0.198000000    -3.227000000    -4.831000000
C     0.860000000    -2.871000000    -5.568000000
C     2.078000000    -2.879000000    -4.988000000
H     2.254000000    -3.014000000    -3.924000000
C     0.678000000    -2.773000000    -6.956000000
H    -0.327000000    -2.809000000    -7.371000000
C     1.742000000    -2.532000000    -7.796000000
H     1.638000000    -2.347000000    -8.862000000
C     3.014000000    -2.481000000    -7.157000000
H     3.861000000    -2.346000000    -7.825000000
C     3.203000000    -2.668000000    -5.770000000
O     4.473000000    -2.758000000    -5.191000000
C     4.702000000    -2.209000000    -3.964000000
C     5.443000000    -3.008000000    -3.120000000
H     5.867000000    -3.939000000    -3.488000000
C     5.665000000    -2.458000000    -1.836000000
O     6.380000000    -3.202000000    -0.822000000
C     6.348000000    -3.013000000     0.524000000
C     5.135000000    -3.194000000     1.186000000
H     4.280000000    -3.585000000     0.640000000
C     7.484000000    -2.494000000     1.186000000
H     8.410000000    -2.212000000     0.690000000
C     7.413000000    -2.365000000     2.547000000
H     8.266000000    -2.100000000     3.166000000
C     6.243000000    -2.635000000     3.229000000
H     6.230000000    -2.542000000     4.312000000
C     5.093000000    -3.105000000     2.572000000
O     3.994000000    -3.489000000     3.288000000
C     2.973000000    -2.687000000     3.743000000
C     1.997000000    -3.311000000     4.550000000
H     1.958000000    -4.389000000     4.686000000
C     1.028000000    -2.556000000     5.169000000
O     0.083000000    -3.210000000     5.935000000
C    -1.129000000    -2.657000000     6.188000000
C    -2.228000000    -2.948000000     5.420000000
H    -2.159000000    -3.624000000     4.571000000
C    -1.252000000    -2.006000000     7.392000000
H    -0.357000000    -1.763000000     7.959000000
C    -2.523000000    -1.412000000     7.746000000
H    -2.512000000    -0.680000000     8.549000000
C    -3.686000000    -1.569000000     6.948000000
H    -4.642000000    -1.074000000     7.100000000
C    -3.470000000    -2.408000000     5.791000000
O    -4.484000000    -2.612000000     4.890000000
C    -4.542000000    -1.943000000     3.681000000
C    -5.276000000    -2.563000000     2.654000000
H    -5.861000000    -3.467000000     2.801000000
C    -5.511000000    -1.916000000     1.506000000
O    -6.228000000    -2.682000000     0.510000000
C    -6.493000000    -2.467000000    -0.757000000
C    -7.836000000    -2.365000000    -1.176000000
H    -8.639000000    -2.399000000    -0.444000000
C    -8.174000000    -2.247000000    -2.540000000
H    -9.181000000    -2.118000000    -2.931000000
C    -7.139000000    -2.451000000    -3.527000000
H    -7.395000000    -2.478000000    -4.583000000
C    -5.797000000    -2.499000000    -3.129000000
C    -5.468000000    -2.483000000    -1.747000000
H    -4.477000000    -2.509000000    -1.299000000
C    -1.387000000    -2.075000000     0.293000000
H    -2.348000000    -2.580000000     0.231000000
C    -1.292000000    -0.716000000     0.104000000
H    -2.063000000    -0.085000000    -0.331000000
C    -0.115000000    -0.030000000     0.400000000
C     0.017000000     1.487000000     0.094000000
H     0.239000000     1.953000000     1.057000000
H     0.827000000     1.751000000    -0.590000000
H    -0.923000000     1.877000000    -0.299000000
C     1.029000000    -0.794000000     0.609000000
H     2.037000000    -0.400000000     0.710000000
C     0.976000000    -2.163000000     0.754000000
H     1.918000000    -2.705000000     0.785000000
C    -0.258000000    -2.810000000     0.786000000
C    -0.397000000    -4.393000000     0.987000000
O     0.549000000    -5.108000000     0.838000000
O    -1.493000000    -4.870000000     1.125000000
O     2.738000000    -8.804000000     3.952000000
H     2.104000000    -9.099000000     4.605000000
H     2.985000000    -7.925000000     4.239000000
O     2.520000000    -5.228000000    -1.103000000
H     1.845000000    -5.891000000    -0.955000000
H     2.191000000    -4.448000000    -0.656000000
O     0.107000000    -7.190000000     5.557000000
H     0.333000000    -8.099000000     5.754000000
H     0.069000000    -7.155000000     4.601000000
O     1.964000000    -9.441000000    -0.958000000
H     2.279000000   -10.345000000    -0.945000000
H     2.351000000    -9.041000000    -0.180000000
O    -2.782000000    -8.576000000     2.280000000
H    -2.516000000    -8.403000000     1.377000000
H    -2.773000000    -9.530000000     2.353000000
O     4.565000000    -5.987000000     4.468000000
H     5.503000000    -6.064000000     4.291000000
H     4.351000000    -5.083000000     4.237000000
O    -1.638000000    -6.200000000    -2.642000000
H    -1.992000000    -6.466000000    -3.491000000
H    -0.728000000    -5.965000000    -2.825000000
O     2.400000000    -7.636000000     1.129000000
H     2.580000000    -8.221000000     1.865000000
H     1.639000000    -7.127000000     1.409000000
O    -5.118000000    -6.313000000    -3.196000000
H    -4.633000000    -5.762000000    -2.581000000
H    -5.013000000    -7.202000000    -2.856000000
O     3.486000000    -6.190000000    -3.400000000
H     2.941000000    -6.977000000    -3.429000000
H     3.209000000    -5.736000000    -2.604000000
O    -5.314000000    -5.344000000     4.808000000
H    -5.240000000    -4.393000000     4.726000000
H    -4.658000000    -5.688000000     4.202000000
O    -6.709000000    -6.632000000     2.498000000
H    -6.191000000    -6.346000000     3.250000000
H    -6.373000000    -6.116000000     1.765000000
O    -1.499000000    -7.498000000    -0.090000000
H    -1.229000000    -6.725000000     0.407000000
H    -1.877000000    -7.144000000    -0.895000000
O    -0.525000000    -7.137000000     2.807000000
H    -1.293000000    -7.703000000     2.729000000
H    -0.492000000    -6.662000000     1.977000000
O    -3.319000000    -5.645000000     3.009000000
H    -2.610000000    -5.306000000     2.462000000
H    -3.358000000    -6.578000000     2.801000000
O    -0.620000000   -10.104000000    -0.434000000
H    -0.953000000    -9.207000000    -0.404000000
H     0.308000000   -10.008000000    -0.648000000
O    -3.260000000    -5.142000000    -0.694000000
H    -2.615000000    -5.134000000     0.013000000
H    -2.738000000    -5.127000000    -1.496000000
O    -5.785000000    -6.019000000    -0.119000000
H    -6.028000000    -6.435000000    -0.946000000
H    -4.869000000    -5.767000000    -0.238000000
O     4.657000000    -6.260000000     0.501000000
H     3.928000000    -6.779000000     0.841000000
H     4.358000000    -5.959000000    -0.357000000
