218
-1447.08130
C    -5.145000000    -1.714000000    -1.466000000
H    -5.258000000    -0.757000000    -1.968000000
C    -4.770000000    -1.709000000    -0.110000000
C    -4.554000000    -2.947000000     0.511000000
H    -4.130000000    -3.028000000     1.509000000
C    -4.434000000    -0.398000000     0.626000000
O    -5.040000000     0.755000000    -0.036000000
H    -3.339000000    -0.413000000     0.529000000
O    -4.716000000    -0.407000000     2.073000000
C    -3.760000000     0.082000000     2.908000000
C    -2.820000000    -0.791000000     3.436000000
H    -2.779000000    -1.844000000     3.168000000
C    -1.741000000    -0.232000000     4.159000000
O    -0.797000000    -1.181000000     4.597000000
C    -1.632000000     1.154000000     4.414000000
C    -0.468000000     1.734000000     5.102000000
H    -0.670000000     2.727000000     5.509000000
C     0.806000000     1.813000000     4.282000000
C     1.064000000     3.063000000     3.639000000
H     0.351000000     3.883000000     3.665000000
H    -0.182000000     1.073000000     5.924000000
C    -2.712000000     2.001000000     3.992000000
H    -2.525000000     3.071000000     4.039000000
C    -3.720000000     1.468000000     3.150000000
C    -4.661000000     2.427000000     2.348000000
H    -4.713000000     3.340000000     2.945000000
H    -5.635000000     1.934000000     2.312000000
C    -4.054000000     2.658000000     0.920000000
C    -3.179000000     3.791000000     0.738000000
H    -3.025000000     4.325000000     1.672000000
C    -4.269000000     1.825000000    -0.218000000
C    -3.730000000     2.128000000    -1.418000000
H    -3.962000000     1.435000000    -2.223000000
C    -2.907000000     3.244000000    -1.583000000
O    -2.283000000     3.358000000    -2.766000000
C    -0.935000000     2.844000000    -2.834000000
C    -0.654000000     1.836000000    -3.930000000
C     0.642000000     1.738000000    -4.476000000
H     1.369000000     2.459000000    -4.112000000
C    -1.613000000     0.922000000    -4.329000000
H    -2.638000000     1.079000000    -4.005000000
O    -0.013000000     3.928000000    -2.887000000
H    -0.865000000     2.277000000    -1.894000000
C    -2.607000000     4.049000000    -0.503000000
C    -1.579000000     5.225000000    -0.654000000
H    -1.810000000     5.970000000     0.111000000
H    -1.732000000     5.847000000    -1.538000000
C    -0.101000000     4.842000000    -0.584000000
C     0.508000000     4.955000000     0.638000000
H    -0.065000000     5.340000000     1.478000000
C     0.619000000     4.307000000    -1.684000000
C     1.958000000     3.920000000    -1.510000000
H     2.538000000     3.479000000    -2.317000000
C     2.519000000     3.981000000    -0.205000000
O     3.798000000     3.379000000    -0.045000000
C     3.899000000     2.058000000     0.520000000
C     5.009000000     1.381000000    -0.223000000
C     5.165000000     1.520000000    -1.615000000
H     4.689000000     2.302000000    -2.202000000
C     5.668000000     0.316000000     0.409000000
H     5.504000000     0.213000000     1.479000000
O     4.266000000     2.130000000     1.923000000
H     2.981000000     1.451000000     0.520000000
C     1.807000000     4.539000000     0.826000000
C     2.460000000     4.509000000     2.209000000
H     2.161000000     5.361000000     2.823000000
H     3.544000000     4.628000000     2.143000000
C     2.277000000     3.222000000     2.929000000
C     3.230000000     2.210000000     2.815000000
C     2.915000000     1.005000000     3.425000000
H     3.556000000     0.138000000     3.287000000
C     1.793000000     0.813000000     4.271000000
O     1.515000000    -0.554000000     4.645000000
C     0.501000000    -1.224000000     3.956000000
H     0.280000000    -0.769000000     2.979000000
C     0.796000000    -2.667000000     3.651000000
C    -0.118000000    -3.759000000     3.871000000
H    -1.095000000    -3.468000000     4.249000000
C     1.936000000    -2.943000000     2.964000000
H     2.568000000    -2.149000000     2.573000000
C     2.326000000    -4.221000000     2.564000000
O     3.584000000    -4.463000000     2.021000000
C     1.436000000    -5.284000000     2.784000000
H     1.640000000    -6.274000000     2.384000000
C     0.163000000    -5.075000000     3.380000000
O    -0.695000000    -6.125000000     3.351000000
C    -2.039000000    -5.884000000     3.186000000
C    -2.539000000    -5.733000000     1.926000000
H    -1.856000000    -5.981000000     1.117000000
C    -2.900000000    -5.880000000     4.296000000
H    -2.424000000    -5.850000000     5.273000000
C    -4.225000000    -5.708000000     4.127000000
H    -4.805000000    -5.872000000     5.031000000
C    -4.754000000    -5.421000000     2.848000000
H    -5.820000000    -5.256000000     2.709000000
C    -3.942000000    -5.574000000     1.674000000
O    -4.468000000    -5.369000000     0.418000000
C    -4.799000000    -4.133000000    -0.147000000
C    -5.254000000    -4.113000000    -1.442000000
H    -5.378000000    -5.008000000    -2.046000000
C    -5.437000000    -2.924000000    -2.089000000
O    -5.878000000    -2.929000000    -3.407000000
C    -5.327000000    -1.995000000    -4.252000000
C    -3.988000000    -2.051000000    -4.589000000
H    -3.422000000    -2.884000000    -4.179000000
C    -6.183000000    -1.010000000    -4.826000000
H    -7.216000000    -0.914000000    -4.501000000
C    -5.618000000     0.012000000    -5.585000000
H    -6.234000000     0.834000000    -5.940000000
C    -4.223000000     0.040000000    -5.814000000
H    -3.739000000     0.869000000    -6.323000000
C    -3.447000000    -1.011000000    -5.364000000
O    -2.104000000    -0.991000000    -5.719000000
C    -1.259000000    -0.046000000    -5.219000000
C    -0.011000000    -0.068000000    -5.813000000
H     0.180000000    -0.904000000    -6.481000000
C     0.963000000     0.829000000    -5.427000000
O     2.256000000     0.694000000    -5.988000000
C     3.393000000     1.384000000    -5.720000000
C     4.186000000     1.046000000    -4.594000000
H     3.858000000     0.204000000    -3.989000000
C     3.823000000     2.351000000    -6.617000000
H     3.124000000     2.608000000    -7.408000000
C     5.094000000     2.936000000    -6.456000000
H     5.429000000     3.641000000    -7.213000000
C     5.896000000     2.561000000    -5.321000000
H     6.890000000     2.974000000    -5.168000000
C     5.481000000     1.588000000    -4.444000000
O     6.456000000     1.058000000    -3.602000000
C     6.194000000     0.787000000    -2.260000000
C     6.901000000    -0.239000000    -1.564000000
H     7.525000000    -0.935000000    -2.117000000
C     6.665000000    -0.450000000    -0.216000000
O     7.082000000    -1.641000000     0.352000000
C     6.485000000    -2.370000000     1.393000000
C     6.864000000    -2.173000000     2.682000000
H     7.781000000    -1.610000000     2.833000000
C     6.196000000    -2.710000000     3.780000000
H     6.645000000    -2.559000000     4.758000000
C     4.997000000    -3.458000000     3.590000000
H     4.361000000    -3.854000000     4.378000000
C     4.654000000    -3.699000000     2.227000000
C     5.264000000    -3.068000000     1.155000000
H     4.955000000    -3.207000000     0.122000000
C     2.014000000    -2.504000000    -0.675000000
H     2.996000000    -2.540000000    -1.139000000
C     1.515000000    -1.260000000    -0.346000000
H     2.102000000    -0.353000000    -0.468000000
C     0.160000000    -1.172000000     0.120000000
C    -0.404000000     0.149000000     0.429000000
H    -1.331000000     0.264000000    -0.137000000
H    -0.647000000     0.398000000     1.464000000
H     0.359000000     0.846000000     0.077000000
C    -0.581000000    -2.343000000     0.424000000
H    -1.559000000    -2.380000000     0.899000000
C     0.000000000    -3.523000000     0.166000000
H    -0.504000000    -4.477000000     0.299000000
C     1.317000000    -3.649000000    -0.361000000
C     1.932000000    -5.037000000    -0.597000000
O     1.204000000    -5.975000000    -0.668000000
O     3.075000000    -5.162000000    -1.003000000
O     1.519000000    -8.439000000     0.259000000
H     1.190000000    -7.553000000     0.106000000
H     1.356000000    -8.900000000    -0.564000000
O    -3.333000000    -7.971000000    -0.419000000
H    -2.939000000    -7.420000000    -1.095000000
H    -2.589000000    -8.302000000     0.084000000
O     6.649000000    -8.326000000     1.304000000
H     5.902000000    -7.727000000     1.290000000
H     6.439000000    -8.954000000     1.995000000
O     4.165000000    -7.109000000     0.574000000
H     3.863000000    -6.324000000     0.116000000
H     3.378000000    -7.643000000     0.679000000
O    -2.403000000    -5.325000000    -4.778000000
H    -3.167000000    -5.623000000    -4.284000000
H    -1.660000000    -5.505000000    -4.202000000
O     3.614000000    -4.902000000    -5.416000000
H     4.198000000    -5.286000000    -4.762000000
H     3.020000000    -4.347000000    -4.911000000
O     5.039000000    -4.866000000    -2.709000000
H     4.423000000    -5.129000000    -2.026000000
H     5.019000000    -3.909000000    -2.695000000
O    -1.876000000    -9.060000000     1.836000000
H    -1.143000000    -8.597000000     2.243000000
H    -2.503000000    -9.188000000     2.548000000
O     3.031000000    -7.386000000    -2.382000000
H     3.780000000    -7.034000000    -2.863000000
H     2.829000000    -6.716000000    -1.729000000
O     1.894000000    -8.653000000     3.920000000
H     2.605000000    -9.258000000     3.709000000
H     1.105000000    -9.086000000     3.594000000
O     6.184000000    -6.789000000    -4.239000000
H     7.094000000    -6.540000000    -4.397000000
H     5.850000000    -6.116000000    -3.645000000
O    -0.553000000    -2.293000000    -2.929000000
H    -0.815000000    -1.378000000    -2.822000000
H     0.201000000    -2.395000000    -2.348000000
O     4.283000000    -9.719000000    -2.919000000
H     4.916000000    -9.806000000    -2.207000000
H     3.825000000    -8.899000000    -2.733000000
O    -0.797000000    -6.885000000    -2.274000000
H    -0.253000000    -7.445000000    -2.828000000
H    -0.172000000    -6.322000000    -1.816000000
O     1.271000000    -8.741000000    -4.222000000
H     1.296000000    -8.388000000    -5.111000000
H     1.936000000    -8.243000000    -3.747000000
O     0.484000000   -10.170000000    -1.973000000
H     0.749000000    -9.752000000    -2.792000000
H     1.068000000   -10.923000000    -1.889000000
O     3.183000000    -2.380000000    -6.606000000
H     2.979000000    -2.466000000    -5.674000000
H     3.789000000    -3.100000000    -6.786000000
O     2.111000000    -3.195000000    -3.997000000
H     2.270000000    -2.645000000    -3.231000000
H     1.176000000    -3.397000000    -3.957000000
O     5.384000000    -2.142000000    -3.298000000
H     5.419000000    -1.207000000    -3.097000000
H     6.163000000    -2.302000000    -3.831000000
