218
-1488.76381
C     4.150000000     0.819000000     2.297000000
H     3.356000000     0.509000000     2.972000000
C     3.929000000     2.003000000     1.601000000
C     4.846000000     2.385000000     0.628000000
H     4.648000000     3.210000000    -0.051000000
C     2.553000000     2.695000000     1.836000000
O     2.223000000     2.732000000     3.238000000
H     1.825000000     2.145000000     1.221000000
O     2.610000000     4.003000000     1.351000000
C     1.587000000     4.336000000     0.520000000
C     1.734000000     4.160000000    -0.870000000
H     2.656000000     3.790000000    -1.311000000
C     0.626000000     4.348000000    -1.690000000
O     0.706000000     3.898000000    -3.023000000
C    -0.600000000     4.865000000    -1.132000000
C    -1.856000000     4.891000000    -1.980000000
H    -2.510000000     5.651000000    -1.546000000
C    -2.503000000     3.571000000    -2.123000000
C    -3.534000000     3.262000000    -1.194000000
H    -3.831000000     4.026000000    -0.481000000
H    -1.659000000     5.319000000    -2.965000000
C    -0.692000000     4.983000000     0.280000000
H    -1.636000000     5.268000000     0.736000000
C     0.374000000     4.681000000     1.119000000
C     0.256000000     4.824000000     2.632000000
H    -0.475000000     5.578000000     2.932000000
H     1.161000000     5.214000000     3.103000000
C    -0.107000000     3.543000000     3.320000000
C    -1.382000000     3.298000000     3.733000000
H    -2.133000000     4.039000000     3.470000000
C     0.878000000     2.592000000     3.648000000
C     0.539000000     1.418000000     4.260000000
H     1.316000000     0.667000000     4.376000000
C    -0.784000000     1.158000000     4.654000000
O    -1.106000000    -0.126000000     5.136000000
C    -1.517000000    -1.094000000     4.121000000
C    -0.970000000    -2.497000000     4.420000000
C    -1.647000000    -3.680000000     4.134000000
H    -2.692000000    -3.759000000     3.845000000
C     0.326000000    -2.506000000     4.854000000
H     0.876000000    -1.613000000     5.137000000
O    -2.932000000    -1.129000000     4.188000000
H    -1.145000000    -0.813000000     3.124000000
C    -1.766000000     2.092000000     4.340000000
C    -3.254000000     1.761000000     4.432000000
H    -3.671000000     2.765000000     4.525000000
H    -3.364000000     1.298000000     5.414000000
C    -3.749000000     0.924000000     3.242000000
C    -4.311000000     1.579000000     2.136000000
H    -4.304000000     2.654000000     1.974000000
C    -3.610000000    -0.477000000     3.196000000
C    -4.069000000    -1.253000000     2.053000000
H    -3.815000000    -2.309000000     2.030000000
C    -4.475000000    -0.527000000     0.958000000
O    -4.729000000    -1.280000000    -0.224000000
C    -3.743000000    -1.150000000    -1.374000000
C    -3.295000000    -2.501000000    -1.889000000
C    -3.258000000    -3.649000000    -1.088000000
H    -3.668000000    -3.601000000    -0.082000000
C    -2.809000000    -2.663000000    -3.192000000
H    -2.721000000    -1.772000000    -3.810000000
O    -4.151000000    -0.265000000    -2.354000000
H    -2.805000000    -0.701000000    -1.015000000
C    -4.710000000     0.826000000     1.006000000
C    -5.206000000     1.599000000    -0.195000000
H    -5.672000000     2.489000000     0.233000000
H    -5.935000000     1.044000000    -0.790000000
C    -4.132000000     1.961000000    -1.183000000
C    -3.742000000     1.054000000    -2.206000000
C    -2.819000000     1.456000000    -3.144000000
H    -2.329000000     0.702000000    -3.754000000
C    -2.241000000     2.715000000    -3.208000000
O    -1.100000000     2.912000000    -4.037000000
C     0.194000000     2.651000000    -3.405000000
H     0.257000000     2.088000000    -2.462000000
C     1.102000000     1.933000000    -4.303000000
C     2.498000000     1.991000000    -4.100000000
H     2.928000000     2.526000000    -3.257000000
C     0.606000000     1.079000000    -5.309000000
H    -0.467000000     1.137000000    -5.477000000
C     1.484000000     0.270000000    -6.048000000
O     0.958000000    -0.615000000    -7.056000000
C     2.832000000     0.400000000    -5.889000000
H     3.579000000    -0.192000000    -6.411000000
C     3.378000000     1.207000000    -4.900000000
O     4.789000000     1.177000000    -4.624000000
C     5.548000000     2.022000000    -3.892000000
C     5.743000000     1.642000000    -2.587000000
H     5.193000000     0.783000000    -2.211000000
C     6.177000000     3.076000000    -4.537000000
H     5.875000000     3.246000000    -5.567000000
C     7.156000000     3.823000000    -3.729000000
H     7.671000000     4.668000000    -4.178000000
C     7.273000000     3.493000000    -2.358000000
H     7.935000000     4.064000000    -1.712000000
C     6.684000000     2.331000000    -1.852000000
O     6.947000000     1.986000000    -0.556000000
C     5.984000000     1.583000000     0.386000000
C     6.134000000     0.373000000     1.100000000
H     7.030000000    -0.234000000     0.998000000
C     5.210000000    -0.052000000     2.043000000
O     5.450000000    -1.215000000     2.697000000
C     4.781000000    -1.463000000     3.919000000
C     3.960000000    -2.605000000     4.099000000
H     3.958000000    -3.270000000     3.239000000
C     4.812000000    -0.558000000     4.936000000
H     5.419000000     0.341000000     4.866000000
C     4.045000000    -0.725000000     6.079000000
H     4.222000000    -0.124000000     6.968000000
C     3.313000000    -1.939000000     6.267000000
H     2.746000000    -2.120000000     7.177000000
C     3.176000000    -2.812000000     5.212000000
O     2.343000000    -3.880000000     5.322000000
C     1.016000000    -3.783000000     4.973000000
C     0.359000000    -4.979000000     4.604000000
H     0.870000000    -5.910000000     4.838000000
C    -1.026000000    -4.938000000     4.302000000
O    -1.691000000    -6.059000000     3.930000000
C    -2.633000000    -6.156000000     2.900000000
C    -2.208000000    -5.970000000     1.586000000
H    -1.157000000    -5.708000000     1.489000000
C    -3.931000000    -6.514000000     3.146000000
H    -4.113000000    -6.884000000     4.151000000
C    -4.883000000    -6.579000000     2.073000000
H    -5.923000000    -6.837000000     2.252000000
C    -4.420000000    -6.228000000     0.781000000
H    -5.062000000    -6.258000000    -0.096000000
C    -3.084000000    -6.064000000     0.512000000
O    -2.700000000    -6.021000000    -0.806000000
C    -2.775000000    -4.869000000    -1.573000000
C    -2.356000000    -4.991000000    -2.902000000
H    -1.834000000    -5.880000000    -3.248000000
C    -2.315000000    -3.857000000    -3.673000000
O    -1.597000000    -4.005000000    -4.874000000
C    -1.486000000    -2.950000000    -5.791000000
C    -2.554000000    -2.767000000    -6.673000000
H    -3.475000000    -3.321000000    -6.517000000
C    -2.421000000    -1.847000000    -7.754000000
H    -3.263000000    -1.809000000    -8.440000000
C    -1.269000000    -1.104000000    -7.842000000
H    -1.067000000    -0.341000000    -8.589000000
C    -0.199000000    -1.270000000    -6.921000000
C    -0.318000000    -2.177000000    -5.914000000
H     0.563000000    -2.426000000    -5.328000000
C     0.212000000    -2.431000000    -0.970000000
H     0.126000000    -2.992000000    -1.897000000
C    -0.307000000    -1.150000000    -0.813000000
H    -0.935000000    -0.710000000    -1.584000000
C    -0.123000000    -0.454000000     0.379000000
C    -0.753000000     0.876000000     0.507000000
H    -1.405000000     0.896000000     1.383000000
H     0.018000000     1.620000000     0.718000000
H    -1.271000000     1.126000000    -0.421000000
C     0.626000000    -1.072000000     1.403000000
H     0.823000000    -0.547000000     2.334000000
C     1.051000000    -2.449000000     1.234000000
H     1.610000000    -2.873000000     2.065000000
C     0.859000000    -3.113000000     0.071000000
C     1.263000000    -4.611000000    -0.046000000
O     1.621000000    -5.188000000     0.943000000
O     1.112000000    -5.142000000    -1.152000000
O     2.620000000    -9.696000000     0.355000000
H     2.053000000    -9.182000000    -0.220000000
H     3.456000000    -9.230000000     0.345000000
O     4.473000000    -3.512000000    -5.701000000
H     4.034000000    -3.097000000    -4.960000000
H     5.277000000    -3.005000000    -5.818000000
O    -3.494000000    -9.211000000    -0.160000000
H    -3.811000000    -8.520000000    -0.743000000
H    -2.550000000    -9.065000000    -0.107000000
O    -0.782000000    -8.872000000     0.185000000
H    -0.051000000    -8.570000000    -0.354000000
H    -0.675000000    -8.407000000     1.015000000
O     4.979000000    -6.189000000    -4.590000000
H     4.883000000    -6.088000000    -3.643000000
H     4.652000000    -5.366000000    -4.953000000
O     4.611000000    -8.108000000     2.722000000
H     4.612000000    -8.050000000     1.767000000
H     3.915000000    -8.733000000     2.923000000
O     4.274000000    -5.274000000     1.301000000
H     4.442000000    -5.896000000     0.594000000
H     3.369000000    -4.994000000     1.164000000
O     6.621000000    -4.087000000     0.769000000
H     5.839000000    -4.561000000     1.050000000
H     6.464000000    -3.183000000     1.040000000
O     0.632000000    -7.160000000     2.228000000
H     1.492000000    -7.563000000     2.346000000
H     0.818000000    -6.312000000     1.825000000
O     1.359000000    -7.699000000    -1.154000000
H     1.636000000    -7.862000000    -2.056000000
H     1.208000000    -6.755000000    -1.117000000
O     4.116000000    -6.017000000    -1.665000000
H     4.596000000    -5.210000000    -1.855000000
H     3.196000000    -5.780000000    -1.777000000
O     1.148000000    -6.177000000    -5.525000000
H     0.332000000    -5.800000000    -5.856000000
H     1.823000000    -5.845000000    -6.118000000
O     5.369000000    -3.724000000    -2.422000000
H     6.176000000    -4.024000000    -2.841000000
H     5.142000000    -2.919000000    -2.888000000
O     4.823000000    -8.065000000    -0.119000000
H     5.525000000    -8.433000000    -0.657000000
H     4.538000000    -7.286000000    -0.596000000
O     4.725000000    -5.765000000     3.829000000
H     4.673000000    -6.664000000     3.503000000
H     4.560000000    -5.221000000     3.058000000
O     2.187000000    -4.414000000    -3.349000000
H     1.627000000    -4.675000000    -2.618000000
H     1.842000000    -4.898000000    -4.100000000
O     0.516000000    -8.786000000    -5.005000000
H     0.828000000    -7.883000000    -5.058000000
H     0.628000000    -9.131000000    -5.891000000
O     3.035000000    -1.973000000    -3.622000000
H     2.606000000    -2.800000000    -3.399000000
H     2.325000000    -1.332000000    -3.638000000
O    -0.854000000    -8.717000000     4.492000000
H    -0.960000000    -9.465000000     3.905000000
H    -0.419000000    -8.052000000     3.957000000
