218
-1455.41986
C     4.314000000     1.440000000     2.968000000
H     3.950000000     1.609000000     3.978000000
C     3.806000000     1.960000000     1.787000000
C     4.539000000     1.831000000     0.613000000
H     4.134000000     2.161000000    -0.340000000
C     2.458000000     2.675000000     1.746000000
O     2.285000000     3.243000000     3.086000000
H     1.712000000     1.909000000     1.488000000
O     2.483000000     3.775000000     0.876000000
C     1.381000000     4.246000000     0.156000000
C     1.488000000     4.240000000    -1.254000000
H     2.336000000     3.912000000    -1.850000000
C     0.343000000     4.425000000    -2.036000000
O     0.411000000     3.946000000    -3.305000000
C    -0.890000000     4.675000000    -1.404000000
C    -2.216000000     4.735000000    -2.058000000
H    -2.869000000     5.492000000    -1.621000000
C    -2.878000000     3.390000000    -2.135000000
C    -3.880000000     3.060000000    -1.246000000
H    -4.030000000     3.805000000    -0.469000000
H    -1.888000000     5.090000000    -3.037000000
C    -0.900000000     4.931000000    -0.030000000
H    -1.746000000     5.203000000     0.595000000
C     0.220000000     4.707000000     0.760000000
C     0.202000000     5.031000000     2.299000000
H    -0.481000000     5.860000000     2.496000000
H     1.175000000     5.455000000     2.555000000
C    -0.080000000     3.785000000     3.192000000
C    -1.406000000     3.344000000     3.327000000
H    -2.246000000     3.886000000     2.898000000
C     0.996000000     3.055000000     3.610000000
C     0.738000000     1.880000000     4.161000000
H     1.546000000     1.257000000     4.536000000
C    -0.509000000     1.374000000     4.371000000
O    -0.632000000     0.146000000     4.900000000
C    -1.022000000    -0.940000000     3.956000000
C    -0.229000000    -2.254000000     4.281000000
C    -0.536000000    -3.433000000     3.604000000
H    -1.445000000    -3.442000000     3.008000000
C     0.989000000    -2.229000000     4.952000000
H     1.289000000    -1.319000000     5.465000000
O    -2.469000000    -1.138000000     3.909000000
H    -0.753000000    -0.709000000     2.915000000
C    -1.651000000     2.129000000     3.974000000
C    -3.050000000     1.605000000     4.272000000
H    -3.583000000     2.534000000     4.484000000
H    -3.008000000     1.028000000     5.198000000
C    -3.590000000     0.809000000     3.074000000
C    -4.285000000     1.407000000     2.074000000
H    -4.701000000     2.383000000     2.312000000
C    -3.256000000    -0.564000000     2.979000000
C    -3.773000000    -1.300000000     1.945000000
H    -3.698000000    -2.384000000     1.910000000
C    -4.567000000    -0.716000000     0.938000000
O    -4.881000000    -1.474000000    -0.201000000
C    -3.982000000    -1.396000000    -1.348000000
C    -3.456000000    -2.662000000    -1.946000000
C    -3.389000000    -3.799000000    -1.250000000
H    -3.722000000    -3.798000000    -0.215000000
C    -3.126000000    -2.738000000    -3.295000000
H    -3.305000000    -1.825000000    -3.857000000
O    -4.466000000    -0.419000000    -2.331000000
H    -3.082000000    -0.870000000    -0.995000000
C    -4.766000000     0.655000000     0.980000000
C    -5.504000000     1.387000000    -0.108000000
H    -5.920000000     2.241000000     0.431000000
H    -6.372000000     0.817000000    -0.445000000
C    -4.476000000     1.803000000    -1.226000000
C    -4.113000000     0.902000000    -2.154000000
C    -3.188000000     1.285000000    -3.145000000
H    -2.918000000     0.519000000    -3.868000000
C    -2.523000000     2.514000000    -3.166000000
O    -1.533000000     2.744000000    -4.102000000
C    -0.185000000     2.684000000    -3.612000000
H    -0.189000000     2.180000000    -2.634000000
C     0.734000000     1.859000000    -4.525000000
C     2.092000000     1.713000000    -4.311000000
H     2.591000000     2.153000000    -3.451000000
C     0.186000000     1.169000000    -5.624000000
H    -0.862000000     1.241000000    -5.903000000
C     0.978000000     0.210000000    -6.352000000
O     0.322000000    -0.554000000    -7.364000000
C     2.366000000     0.048000000    -6.069000000
H     2.977000000    -0.695000000    -6.576000000
C     2.869000000     0.772000000    -5.052000000
O     4.140000000     0.469000000    -4.671000000
C     4.969000000     1.223000000    -3.904000000
C     5.307000000     0.816000000    -2.587000000
H     5.035000000    -0.148000000    -2.166000000
C     5.455000000     2.423000000    -4.481000000
H     5.270000000     2.737000000    -5.505000000
C     6.290000000     3.171000000    -3.653000000
H     6.773000000     4.073000000    -4.020000000
C     6.614000000     2.808000000    -2.342000000
H     7.316000000     3.306000000    -1.678000000
C     6.142000000     1.591000000    -1.788000000
O     6.571000000     1.157000000    -0.514000000
C     5.760000000     1.201000000     0.579000000
C     6.252000000     0.623000000     1.735000000
H     7.157000000     0.029000000     1.638000000
C     5.481000000     0.617000000     2.892000000
O     6.034000000    -0.022000000     3.982000000
C     5.285000000    -0.606000000     4.999000000
C     4.612000000    -1.800000000     4.819000000
H     4.536000000    -2.303000000     3.858000000
C     5.345000000    -0.015000000     6.259000000
H     5.809000000     0.958000000     6.395000000
C     4.510000000    -0.467000000     7.234000000
H     4.459000000     0.121000000     8.147000000
C     3.628000000    -1.528000000     7.005000000
H     3.014000000    -1.840000000     7.846000000
C     3.761000000    -2.277000000     5.825000000
O     2.991000000    -3.456000000     5.635000000
C     1.800000000    -3.388000000     4.943000000
C     1.463000000    -4.547000000     4.236000000
H     2.091000000    -5.432000000     4.301000000
C     0.201000000    -4.634000000     3.656000000
O    -0.163000000    -5.826000000     3.263000000
C    -1.311000000    -6.070000000     2.567000000
C    -1.330000000    -5.951000000     1.167000000
H    -0.392000000    -5.669000000     0.696000000
C    -2.447000000    -6.318000000     3.232000000
H    -2.366000000    -6.187000000     4.308000000
C    -3.593000000    -6.621000000     2.557000000
H    -4.388000000    -6.908000000     3.240000000
C    -3.628000000    -6.554000000     1.172000000
H    -4.529000000    -6.890000000     0.666000000
C    -2.548000000    -6.107000000     0.442000000
O    -2.565000000    -6.076000000    -0.959000000
C    -2.827000000    -4.976000000    -1.739000000
C    -2.349000000    -5.042000000    -3.092000000
H    -1.895000000    -5.935000000    -3.514000000
C    -2.564000000    -3.882000000    -3.904000000
O    -2.188000000    -3.934000000    -5.251000000
C    -2.137000000    -2.897000000    -6.097000000
C    -3.315000000    -2.445000000    -6.757000000
H    -4.271000000    -2.892000000    -6.496000000
C    -3.206000000    -1.345000000    -7.579000000
H    -4.097000000    -1.024000000    -8.113000000
C    -1.990000000    -0.707000000    -7.792000000
H    -1.958000000     0.181000000    -8.417000000
C    -0.819000000    -1.235000000    -7.151000000
C    -0.884000000    -2.389000000    -6.346000000
H     0.044000000    -2.779000000    -5.936000000
C    -0.125000000    -2.646000000    -1.706000000
H    -0.394000000    -3.144000000    -2.634000000
C    -0.624000000    -1.358000000    -1.457000000
H    -1.300000000    -0.870000000    -2.154000000
C    -0.217000000    -0.676000000    -0.296000000
C    -0.733000000     0.648000000     0.015000000
H    -0.991000000     0.745000000     1.072000000
H     0.111000000     1.342000000     0.015000000
H    -1.581000000     0.965000000    -0.594000000
C     0.720000000    -1.230000000     0.548000000
H     1.063000000    -0.654000000     1.403000000
C     1.193000000    -2.534000000     0.254000000
H     1.907000000    -2.940000000     0.967000000
C     0.765000000    -3.267000000    -0.822000000
C     1.273000000    -4.611000000    -1.105000000
O     2.261000000    -4.964000000    -0.512000000
O     0.688000000    -5.371000000    -1.894000000
O     1.545000000    -5.152000000    -4.291000000
H     1.101000000    -5.126000000    -3.443000000
H     0.923000000    -5.589000000    -4.873000000
O     2.710000000    -1.940000000    -3.463000000
H     2.736000000    -1.044000000    -3.801000000
H     1.977000000    -1.942000000    -2.848000000
O     2.680000000    -7.658000000     1.970000000
H     1.846000000    -7.652000000     2.439000000
H     2.456000000    -7.947000000     1.086000000
O     4.371000000    -9.772000000    -0.603000000
H     4.795000000   -10.027000000    -1.422000000
H     3.696000000    -9.147000000    -0.867000000
O     6.527000000    -5.505000000    -2.752000000
H     5.697000000    -5.036000000    -2.658000000
H     6.476000000    -6.212000000    -2.109000000
O     0.557000000    -9.381000000     1.212000000
H    -0.350000000    -9.300000000     1.508000000
H     0.547000000    -9.051000000     0.314000000
O     2.260000000    -3.836000000    -6.562000000
H     3.094000000    -3.368000000    -6.530000000
H     2.072000000    -4.053000000    -5.648000000
O     1.105000000    -9.412000000    -4.184000000
H     1.050000000    -9.046000000    -3.301000000
H     2.012000000    -9.708000000    -4.264000000
O     0.041000000    -7.985000000    -1.770000000
H    -0.087000000    -7.089000000    -2.081000000
H    -0.845000000    -8.335000000    -1.678000000
O     5.865000000    -3.758000000     0.361000000
H     5.025000000    -3.900000000     0.797000000
H     5.650000000    -3.731000000    -0.571000000
O     5.671000000    -8.477000000    -3.419000000
H     6.240000000    -8.320000000    -2.665000000
H     5.032000000    -7.765000000    -3.389000000
O     5.021000000    -3.436000000    -5.938000000
H     5.222000000    -4.364000000    -6.060000000
H     5.371000000    -3.227000000    -5.073000000
O     3.621000000    -4.461000000     1.717000000
H     3.109000000    -4.664000000     0.934000000
H     3.942000000    -5.310000000     2.021000000
O     3.801000000    -6.351000000    -3.248000000
H     3.440000000    -6.505000000    -2.375000000
H     3.061000000    -6.022000000    -3.758000000
O    -0.364000000    -6.947000000    -5.020000000
H    -1.293000000    -7.143000000    -5.141000000
H     0.011000000    -7.761000000    -4.684000000
O     4.412000000    -3.522000000    -1.887000000
H     3.826000000    -3.152000000    -2.548000000
H     3.825000000    -3.882000000    -1.222000000
O     2.611000000    -7.561000000    -1.060000000
H     2.694000000    -6.702000000    -0.646000000
H     1.794000000    -7.510000000    -1.555000000
O    -3.819000000    -8.020000000    -3.088000000
H    -3.083000000    -8.238000000    -2.516000000
H    -3.445000000    -8.014000000    -3.969000000
O     6.616000000    -2.427000000    -3.885000000
H     7.339000000    -1.807000000    -3.989000000
H     6.326000000    -2.306000000    -2.981000000
