218
-1467.09225
C     4.846000000     0.946000000     1.320000000
H     4.373000000     0.485000000     2.183000000
C     4.297000000     2.078000000     0.663000000
C     4.906000000     2.523000000    -0.492000000
H     4.530000000     3.390000000    -1.030000000
C     3.021000000     2.682000000     1.202000000
O     2.845000000     2.677000000     2.582000000
H     2.182000000     2.130000000     0.754000000
O     2.752000000     4.010000000     0.753000000
C     1.497000000     4.292000000     0.247000000
C     1.206000000     4.214000000    -1.105000000
H     1.937000000     3.938000000    -1.860000000
C    -0.090000000     4.462000000    -1.600000000
O    -0.380000000     4.053000000    -2.807000000
C    -1.180000000     4.773000000    -0.750000000
C    -2.594000000     4.827000000    -1.280000000
H    -3.215000000     5.542000000    -0.736000000
C    -3.223000000     3.452000000    -1.222000000
C    -3.932000000     3.077000000    -0.083000000
H    -4.007000000     3.757000000     0.762000000
H    -2.540000000     5.088000000    -2.339000000
C    -0.867000000     4.962000000     0.615000000
H    -1.691000000     4.958000000     1.324000000
C     0.452000000     4.672000000     1.103000000
C     0.765000000     4.784000000     2.651000000
H     0.108000000     5.546000000     3.077000000
H     1.765000000     5.154000000     2.885000000
C     0.611000000     3.404000000     3.308000000
C    -0.536000000     3.046000000     3.990000000
H    -1.418000000     3.661000000     3.831000000
C     1.637000000     2.458000000     3.209000000
C     1.581000000     1.260000000     3.968000000
H     2.420000000     0.573000000     3.891000000
C     0.398000000     0.919000000     4.593000000
O     0.194000000    -0.377000000     4.971000000
C    -0.303000000    -1.271000000     4.045000000
C     0.514000000    -2.487000000     3.860000000
C    -0.017000000    -3.549000000     2.987000000
H    -1.066000000    -3.377000000     2.759000000
C     1.832000000    -2.647000000     4.291000000
H     2.301000000    -1.908000000     4.935000000
O    -1.667000000    -1.614000000     4.486000000
H    -0.343000000    -0.748000000     3.078000000
C    -0.722000000     1.756000000     4.575000000
C    -2.093000000     1.326000000     5.065000000
H    -2.643000000     2.195000000     5.431000000
H    -1.846000000     0.719000000     5.938000000
C    -2.796000000     0.530000000     4.045000000
C    -3.633000000     1.280000000     3.213000000
H    -3.619000000     2.366000000     3.268000000
C    -2.697000000    -0.842000000     3.835000000
C    -3.427000000    -1.533000000     2.848000000
H    -3.385000000    -2.592000000     2.606000000
C    -4.253000000    -0.772000000     2.042000000
O    -4.901000000    -1.488000000     1.096000000
C    -4.391000000    -1.312000000    -0.237000000
C    -4.416000000    -2.622000000    -1.032000000
C    -4.252000000    -3.829000000    -0.352000000
H    -4.302000000    -3.795000000     0.733000000
C    -4.416000000    -2.620000000    -2.413000000
H    -4.653000000    -1.714000000    -2.966000000
O    -5.084000000    -0.281000000    -0.895000000
H    -3.317000000    -1.139000000    -0.069000000
C    -4.336000000     0.643000000     2.200000000
C    -5.206000000     1.489000000     1.353000000
H    -5.421000000     2.382000000     1.943000000
H    -6.205000000     1.094000000     1.158000000
C    -4.463000000     1.824000000     0.056000000
C    -4.509000000     0.947000000    -1.009000000
C    -3.810000000     1.307000000    -2.159000000
H    -3.726000000     0.603000000    -2.983000000
C    -3.050000000     2.477000000    -2.268000000
O    -2.194000000     2.711000000    -3.307000000
C    -0.794000000     2.705000000    -3.009000000
H    -0.681000000     2.319000000    -1.985000000
C    -0.012000000     1.939000000    -4.045000000
C     1.296000000     2.301000000    -4.397000000
H     1.617000000     3.291000000    -4.084000000
C    -0.470000000     0.676000000    -4.433000000
H    -1.438000000     0.304000000    -4.105000000
C     0.264000000    -0.231000000    -5.161000000
O    -0.246000000    -1.472000000    -5.481000000
C     1.562000000     0.142000000    -5.523000000
H     2.262000000    -0.447000000    -6.110000000
C     2.082000000     1.399000000    -5.121000000
O     3.333000000     1.779000000    -5.629000000
C     4.233000000     2.562000000    -4.950000000
C     4.916000000     2.168000000    -3.776000000
H     4.614000000     1.259000000    -3.263000000
C     4.629000000     3.802000000    -5.461000000
H     4.036000000     4.128000000    -6.312000000
C     5.685000000     4.592000000    -4.925000000
H     6.132000000     5.494000000    -5.335000000
C     6.393000000     4.049000000    -3.798000000
H     7.191000000     4.601000000    -3.309000000
C     5.998000000     2.879000000    -3.267000000
O     6.685000000     2.367000000    -2.180000000
C     6.049000000     1.892000000    -1.039000000
C     6.568000000     0.794000000    -0.351000000
H     7.407000000     0.293000000    -0.827000000
C     5.992000000     0.303000000     0.825000000
O     6.526000000    -0.866000000     1.372000000
C     6.091000000    -1.304000000     2.644000000
C     5.173000000    -2.283000000     2.804000000
H     4.750000000    -2.612000000     1.858000000
C     6.606000000    -0.687000000     3.804000000
H     7.288000000     0.156000000     3.717000000
C     6.311000000    -1.229000000     5.028000000
H     6.767000000    -0.773000000     5.903000000
C     5.431000000    -2.295000000     5.184000000
H     5.184000000    -2.694000000     6.165000000
C     4.795000000    -2.729000000     4.049000000
O     3.928000000    -3.782000000     4.084000000
C     2.602000000    -3.687000000     3.842000000
C     2.034000000    -4.681000000     3.052000000
H     2.557000000    -5.599000000     2.794000000
C     0.725000000    -4.656000000     2.628000000
O     0.190000000    -5.716000000     1.878000000
C    -1.194000000    -5.986000000     1.947000000
C    -1.920000000    -5.853000000     0.835000000
H    -1.485000000    -5.580000000    -0.123000000
C    -1.871000000    -6.371000000     3.129000000
H    -1.342000000    -6.327000000     4.078000000
C    -3.228000000    -6.736000000     3.059000000
H    -3.774000000    -7.098000000     3.926000000
C    -3.910000000    -6.650000000     1.813000000
H    -4.953000000    -6.943000000     1.724000000
C    -3.264000000    -6.258000000     0.711000000
O    -3.987000000    -6.234000000    -0.472000000
C    -4.018000000    -5.039000000    -1.100000000
C    -4.041000000    -5.074000000    -2.494000000
H    -3.951000000    -6.037000000    -2.990000000
C    -4.160000000    -3.807000000    -3.152000000
O    -4.315000000    -3.856000000    -4.485000000
C    -3.616000000    -2.897000000    -5.211000000
C    -4.373000000    -2.068000000    -5.985000000
H    -5.442000000    -2.258000000    -6.049000000
C    -3.685000000    -1.094000000    -6.815000000
H    -4.204000000    -0.471000000    -7.539000000
C    -2.293000000    -0.923000000    -6.704000000
H    -1.776000000    -0.158000000    -7.277000000
C    -1.588000000    -1.722000000    -5.825000000
C    -2.253000000    -2.668000000    -5.089000000
H    -1.704000000    -3.320000000    -4.413000000
C    -0.657000000    -1.905000000    -1.555000000
H    -1.197000000    -2.288000000    -2.417000000
C    -1.039000000    -0.689000000    -1.051000000
H    -1.970000000    -0.292000000    -1.447000000
C    -0.310000000    -0.120000000    -0.058000000
C    -0.759000000     1.194000000     0.553000000
H    -1.831000000     1.343000000     0.407000000
H    -0.641000000     1.221000000     1.638000000
H    -0.261000000     2.069000000     0.129000000
C     0.790000000    -0.742000000     0.482000000
H     1.357000000    -0.126000000     1.176000000
C     1.183000000    -1.952000000    -0.053000000
H     2.073000000    -2.351000000     0.426000000
C     0.516000000    -2.527000000    -1.155000000
C     0.860000000    -3.794000000    -1.860000000
O     1.874000000    -4.371000000    -1.498000000
O     0.124000000    -4.210000000    -2.774000000
O     1.703000000    -7.093000000    -1.854000000
H     1.396000000    -6.203000000    -1.684000000
H     1.054000000    -7.655000000    -1.431000000
O     4.247000000    -5.016000000     0.132000000
H     4.010000000    -5.585000000     0.864000000
H     3.412000000    -4.665000000    -0.178000000
O    -3.624000000    -9.240000000    -1.952000000
H    -3.139000000    -8.634000000    -2.511000000
H    -3.797000000    -9.997000000    -2.512000000
O     2.617000000    -9.918000000     1.213000000
H     2.270000000    -9.974000000     2.103000000
H     2.636000000    -8.981000000     1.021000000
O     3.182000000    -7.292000000    -4.533000000
H     2.789000000    -6.485000000    -4.202000000
H     3.685000000    -7.634000000    -3.793000000
O     4.577000000    -6.905000000    -1.782000000
H     4.650000000    -6.081000000    -1.300000000
H     3.714000000    -7.245000000    -1.544000000
O     6.580000000    -4.359000000    -2.859000000
H     6.833000000    -4.314000000    -3.781000000
H     5.676000000    -4.672000000    -2.873000000
O     1.018000000    -3.060000000    -7.960000000
H     0.794000000    -3.987000000    -8.047000000
H     0.632000000    -2.798000000    -7.124000000
O     5.354000000    -6.319000000    -5.841000000
H     5.892000000    -7.094000000    -5.682000000
H     4.492000000    -6.549000000    -5.493000000
O     3.863000000    -3.746000000    -3.479000000
H     3.891000000    -2.820000000    -3.237000000
H     3.189000000    -4.121000000    -2.913000000
O     6.903000000    -4.491000000     1.047000000
H     6.825000000    -5.429000000     0.872000000
H     6.011000000    -4.156000000     0.956000000
O     1.712000000    -4.448000000    -5.065000000
H     1.090000000    -4.274000000    -4.358000000
H     2.496000000    -3.957000000    -4.821000000
O     5.411000000    -3.521000000    -5.815000000
H     4.994000000    -3.435000000    -4.957000000
H     5.512000000    -4.464000000    -5.938000000
O    -1.283000000    -7.597000000    -5.363000000
H    -1.184000000    -7.180000000    -4.507000000
H    -2.174000000    -7.378000000    -5.635000000
O     0.125000000    -8.976000000    -0.805000000
H    -0.260000000    -9.288000000     0.014000000
H     0.525000000    -9.754000000    -1.194000000
O     4.152000000    -7.491000000     1.941000000
H     5.081000000    -7.294000000     2.063000000
H     3.880000000    -7.884000000     2.770000000
O    -1.238000000    -6.646000000    -2.928000000
H    -0.636000000    -5.903000000    -2.899000000
H    -1.560000000    -6.728000000    -2.030000000
O     2.803000000   -10.276000000    -2.916000000
H     3.046000000    -9.473000000    -2.454000000
H     2.646000000   -10.914000000    -2.220000000
O     0.536000000    -5.903000000    -7.091000000
H     1.195000000    -5.637000000    -6.450000000
H    -0.139000000    -6.343000000    -6.573000000
