218
-1448.94114
C     4.479000000     1.921000000     1.901000000
H     4.565000000     2.032000000     2.979000000
C     3.453000000     2.449000000     1.092000000
C     3.502000000     2.277000000    -0.271000000
H     2.668000000     2.630000000    -0.873000000
C     2.173000000     3.127000000     1.637000000
O     2.134000000     3.301000000     3.087000000
H     1.475000000     2.303000000     1.423000000
O     1.738000000     4.273000000     0.921000000
C     0.382000000     4.467000000     0.554000000
C     0.114000000     4.425000000    -0.825000000
H     0.899000000     4.301000000    -1.566000000
C    -1.194000000     4.349000000    -1.302000000
O    -1.333000000     4.074000000    -2.649000000
C    -2.236000000     4.416000000    -0.414000000
C    -3.696000000     4.206000000    -0.774000000
H    -4.326000000     4.673000000    -0.014000000
C    -3.994000000     2.720000000    -0.732000000
C    -4.618000000     2.010000000     0.299000000
H    -4.927000000     2.572000000     1.177000000
H    -3.985000000     4.622000000    -1.741000000
C    -1.985000000     4.605000000     0.954000000
H    -2.768000000     4.669000000     1.704000000
C    -0.723000000     4.643000000     1.501000000
C    -0.440000000     4.671000000     3.038000000
H    -1.252000000     5.264000000     3.464000000
H     0.380000000     5.336000000     3.319000000
C    -0.254000000     3.294000000     3.642000000
C    -1.372000000     2.647000000     4.295000000
H    -2.381000000     3.038000000     4.188000000
C     1.031000000     2.801000000     3.803000000
C     1.175000000     1.579000000     4.462000000
H     2.062000000     0.951000000     4.492000000
C     0.123000000     0.836000000     4.949000000
O     0.298000000    -0.489000000     5.383000000
C     0.163000000    -1.489000000     4.302000000
C     1.406000000    -2.303000000     3.978000000
C     1.354000000    -3.199000000     2.957000000
H     0.416000000    -3.296000000     2.417000000
C     2.643000000    -2.189000000     4.630000000
H     2.761000000    -1.397000000     5.365000000
O    -1.084000000    -2.185000000     4.552000000
H     0.102000000    -0.889000000     3.382000000
C    -1.191000000     1.356000000     4.847000000
C    -2.325000000     0.441000000     5.309000000
H    -3.171000000     1.023000000     5.682000000
H    -2.047000000    -0.254000000     6.105000000
C    -2.757000000    -0.384000000     4.130000000
C    -3.857000000    -0.029000000     3.405000000
H    -4.284000000     0.958000000     3.562000000
C    -2.155000000    -1.628000000     3.835000000
C    -2.488000000    -2.325000000     2.669000000
H    -1.963000000    -3.266000000     2.527000000
C    -3.500000000    -1.861000000     1.871000000
O    -3.868000000    -2.646000000     0.757000000
C    -3.464000000    -2.100000000    -0.553000000
C    -2.953000000    -3.219000000    -1.477000000
C    -2.241000000    -4.301000000    -0.964000000
H    -1.908000000    -4.320000000     0.071000000
C    -3.073000000    -3.133000000    -2.868000000
H    -3.548000000    -2.236000000    -3.258000000
O    -4.595000000    -1.398000000    -1.024000000
H    -2.640000000    -1.407000000    -0.326000000
C    -4.266000000    -0.782000000     2.256000000
C    -5.441000000    -0.244000000     1.380000000
H    -6.039000000     0.396000000     2.032000000
H    -6.131000000    -1.013000000     1.023000000
C    -4.925000000     0.616000000     0.257000000
C    -4.571000000    -0.027000000    -0.974000000
C    -3.976000000     0.659000000    -2.048000000
H    -3.696000000     0.103000000    -2.939000000
C    -3.720000000     2.011000000    -1.925000000
O    -3.127000000     2.588000000    -2.994000000
C    -1.701000000     2.787000000    -3.045000000
H    -1.288000000     2.074000000    -2.317000000
C    -1.166000000     2.451000000    -4.419000000
C     0.120000000     2.814000000    -4.742000000
H     0.718000000     3.460000000    -4.105000000
C    -1.907000000     1.661000000    -5.266000000
H    -2.962000000     1.468000000    -5.085000000
C    -1.240000000     1.132000000    -6.438000000
O    -1.882000000     0.236000000    -7.256000000
C     0.061000000     1.523000000    -6.764000000
H     0.490000000     1.167000000    -7.697000000
C     0.795000000     2.274000000    -5.837000000
O     2.123000000     2.566000000    -6.088000000
C     3.099000000     2.736000000    -5.150000000
C     3.334000000     1.841000000    -4.093000000
H     2.615000000     1.034000000    -3.976000000
C     3.712000000     3.962000000    -5.191000000
H     3.616000000     4.731000000    -5.953000000
C     4.614000000     4.281000000    -4.190000000
H     5.142000000     5.230000000    -4.243000000
C     4.885000000     3.359000000    -3.160000000
H     5.711000000     3.600000000    -2.497000000
C     4.265000000     2.103000000    -3.115000000
O     4.615000000     1.205000000    -2.140000000
C     4.475000000     1.473000000    -0.828000000
C     5.544000000     1.066000000    -0.036000000
H     6.303000000     0.426000000    -0.477000000
C     5.535000000     1.255000000     1.314000000
O     6.605000000     0.856000000     2.050000000
C     6.456000000     0.351000000     3.356000000
C     5.757000000    -0.780000000     3.501000000
H     5.130000000    -1.132000000     2.685000000
C     7.417000000     0.669000000     4.270000000
H     8.074000000     1.485000000     3.983000000
C     7.588000000    -0.094000000     5.444000000
H     8.354000000     0.103000000     6.190000000
C     6.724000000    -1.175000000     5.655000000
H     6.892000000    -1.794000000     6.532000000
C     5.895000000    -1.538000000     4.618000000
O     5.044000000    -2.546000000     4.769000000
C     3.793000000    -2.795000000     4.176000000
C     3.656000000    -3.766000000     3.151000000
H     4.487000000    -4.291000000     2.688000000
C     2.454000000    -3.951000000     2.545000000
O     2.343000000    -4.805000000     1.494000000
C     1.312000000    -5.677000000     1.306000000
C     0.786000000    -5.762000000    -0.025000000
H     1.311000000    -5.283000000    -0.848000000
C     0.647000000    -6.264000000     2.440000000
H     1.132000000    -6.129000000     3.403000000
C    -0.613000000    -6.824000000     2.255000000
H    -1.221000000    -7.218000000     3.066000000
C    -1.064000000    -6.846000000     0.941000000
H    -2.057000000    -7.229000000     0.723000000
C    -0.411000000    -6.406000000    -0.185000000
O    -0.976000000    -6.316000000    -1.432000000
C    -1.778000000    -5.286000000    -1.828000000
C    -2.087000000    -5.243000000    -3.202000000
H    -1.716000000    -6.084000000    -3.783000000
C    -2.663000000    -4.107000000    -3.750000000
O    -2.716000000    -3.949000000    -5.137000000
C    -3.197000000    -2.783000000    -5.749000000
C    -4.548000000    -2.520000000    -5.848000000
H    -5.239000000    -3.271000000    -5.472000000
C    -5.063000000    -1.362000000    -6.428000000
H    -6.129000000    -1.151000000    -6.423000000
C    -4.135000000    -0.402000000    -6.873000000
H    -4.495000000     0.565000000    -7.213000000
C    -2.777000000    -0.705000000    -6.836000000
C    -2.335000000    -1.924000000    -6.288000000
H    -1.265000000    -2.106000000    -6.241000000
C     0.511000000    -0.953000000    -2.262000000
H     0.062000000    -1.170000000    -3.227000000
C    -0.343000000    -0.309000000    -1.386000000
H    -1.336000000    -0.059000000    -1.751000000
C     0.008000000    -0.022000000    -0.116000000
C    -0.863000000     0.840000000     0.802000000
H    -1.789000000     0.329000000     1.074000000
H    -0.333000000     1.128000000     1.712000000
H    -1.180000000     1.757000000     0.302000000
C     1.234000000    -0.386000000     0.365000000
H     1.578000000    -0.155000000     1.370000000
C     1.995000000    -1.257000000    -0.407000000
H     2.897000000    -1.691000000     0.018000000
C     1.670000000    -1.491000000    -1.721000000
C     2.544000000    -2.346000000    -2.659000000
O     3.645000000    -2.667000000    -2.296000000
O     2.275000000    -2.556000000    -3.817000000
O     3.869000000    -5.317000000    -1.874000000
H     3.497000000    -5.786000000    -2.621000000
H     3.628000000    -4.403000000    -2.021000000
O     6.717000000    -4.056000000    -6.245000000
H     5.825000000    -3.851000000    -5.962000000
H     7.084000000    -4.571000000    -5.527000000
O     7.998000000    -1.649000000    -6.075000000
H     7.273000000    -1.099000000    -5.778000000
H     7.584000000    -2.477000000    -6.321000000
O     4.413000000    -4.799000000    -8.158000000
H     4.349000000    -3.847000000    -8.076000000
H     5.238000000    -5.022000000    -7.728000000
O     8.200000000    -1.052000000    -2.168000000
H     8.850000000    -1.323000000    -1.521000000
H     7.365000000    -1.355000000    -1.810000000
O    -0.171000000    -4.529000000    -7.278000000
H     0.183000000    -5.304000000    -7.715000000
H     0.092000000    -4.630000000    -6.363000000
O     4.966000000    -1.056000000    -3.917000000
H     4.975000000    -0.209000000    -3.471000000
H     4.463000000    -1.627000000    -3.335000000
O     2.125000000    -0.801000000    -5.597000000
H     3.022000000    -0.467000000    -5.608000000
H     2.179000000    -1.616000000    -5.098000000
O     6.158000000    -2.358000000    -0.986000000
H     6.149000000    -3.059000000    -0.335000000
H     5.427000000    -2.563000000    -1.569000000
O     4.378000000    -3.882000000    -5.150000000
H     4.084000000    -4.790000000    -5.081000000
H     3.949000000    -3.435000000    -4.421000000
O     4.803000000    -0.066000000    -6.553000000
H     4.773000000    -0.565000000    -5.737000000
H     5.551000000     0.522000000    -6.448000000
O     1.716000000    -6.743000000    -3.262000000
H     1.302000000    -7.384000000    -2.685000000
H     2.115000000    -7.267000000    -3.956000000
O     5.781000000    -6.618000000    -4.151000000
H     6.250000000    -6.731000000    -3.324000000
H     5.051000000    -7.234000000    -4.098000000
O     0.601000000    -1.896000000    -8.067000000
H     1.134000000    -1.498000000    -7.379000000
H     0.354000000    -2.751000000    -7.714000000
O     0.809000000    -4.626000000    -4.736000000
H     1.443000000    -3.942000000    -4.523000000
H     1.088000000    -5.381000000    -4.217000000
O     7.024000000    -3.934000000     0.830000000
H     7.790000000    -3.688000000     0.310000000
H     7.373000000    -4.504000000     1.515000000
O     4.617000000    -2.169000000    -8.124000000
H     4.752000000    -1.385000000    -7.591000000
H     3.811000000    -1.993000000    -8.609000000
O     7.417000000     1.312000000    -3.509000000
H     6.741000000     1.707000000    -2.959000000
H     7.550000000     0.440000000    -3.136000000
O     5.331000000    -6.184000000     0.391000000
H     4.623000000    -5.790000000    -0.119000000
H     5.961000000    -5.475000000     0.515000000
