218
-1450.26496
C    -4.338000000    -1.657000000    -1.902000000
H    -4.115000000    -0.693000000    -2.350000000
C    -4.436000000    -1.704000000    -0.492000000
C    -4.534000000    -2.911000000     0.126000000
H    -4.732000000    -2.859000000     1.193000000
C    -4.229000000    -0.448000000     0.313000000
O    -4.861000000     0.687000000    -0.242000000
H    -3.152000000    -0.236000000     0.243000000
O    -4.534000000    -0.589000000     1.710000000
C    -3.743000000    -0.141000000     2.647000000
C    -2.979000000    -1.037000000     3.388000000
H    -3.152000000    -2.100000000     3.242000000
C    -2.047000000    -0.572000000     4.347000000
O    -1.166000000    -1.501000000     4.846000000
C    -1.829000000     0.768000000     4.493000000
C    -0.715000000     1.293000000     5.425000000
H    -1.022000000     2.266000000     5.813000000
C     0.645000000     1.500000000     4.701000000
C     1.142000000     2.778000000     4.368000000
H     0.528000000     3.632000000     4.644000000
H    -0.504000000     0.544000000     6.190000000
C    -2.559000000     1.649000000     3.780000000
H    -2.289000000     2.682000000     3.982000000
C    -3.570000000     1.246000000     2.870000000
C    -4.411000000     2.280000000     2.190000000
H    -4.541000000     3.196000000     2.770000000
H    -5.420000000     1.926000000     1.966000000
C    -3.865000000     2.614000000     0.859000000
C    -3.075000000     3.656000000     0.801000000
H    -2.807000000     4.236000000     1.681000000
C    -4.121000000     1.837000000    -0.273000000
C    -3.600000000     2.210000000    -1.522000000
H    -3.788000000     1.609000000    -2.408000000
C    -2.724000000     3.276000000    -1.589000000
O    -1.946000000     3.330000000    -2.747000000
C    -0.633000000     2.888000000    -2.741000000
C    -0.279000000     2.291000000    -4.025000000
C     1.004000000     2.248000000    -4.489000000
H     1.796000000     2.546000000    -3.807000000
C    -1.276000000     1.722000000    -4.800000000
H    -2.258000000     1.522000000    -4.379000000
O     0.246000000     3.944000000    -2.439000000
H    -0.499000000     2.107000000    -1.978000000
C    -2.432000000     4.019000000    -0.384000000
C    -1.437000000     5.242000000    -0.336000000
H    -1.669000000     5.938000000     0.473000000
H    -1.500000000     5.795000000    -1.275000000
C     0.039000000     4.891000000    -0.148000000
C     0.637000000     5.001000000     1.147000000
H     0.120000000     5.446000000     1.993000000
C     0.697000000     4.109000000    -1.152000000
C     2.036000000     3.830000000    -0.933000000
H     2.573000000     3.431000000    -1.789000000
C     2.640000000     3.964000000     0.269000000
O     3.855000000     3.475000000     0.547000000
C     3.885000000     2.070000000     0.970000000
C     4.804000000     1.225000000     0.155000000
C     5.071000000     1.522000000    -1.157000000
H     4.623000000     2.400000000    -1.615000000
C     5.202000000    -0.046000000     0.645000000
H     4.803000000    -0.418000000     1.585000000
O     4.068000000     1.873000000     2.385000000
H     2.871000000     1.687000000     0.784000000
C     1.874000000     4.350000000     1.376000000
C     2.433000000     4.336000000     2.780000000
H     2.098000000     5.213000000     3.336000000
H     3.497000000     4.517000000     2.616000000
C     2.184000000     2.969000000     3.481000000
C     2.925000000     1.812000000     3.158000000
C     2.629000000     0.593000000     3.672000000
H     3.312000000    -0.241000000     3.532000000
C     1.410000000     0.406000000     4.385000000
O     1.083000000    -0.880000000     4.760000000
C     0.065000000    -1.614000000     4.059000000
H    -0.071000000    -1.105000000     3.093000000
C     0.424000000    -3.037000000     3.649000000
C    -0.556000000    -3.990000000     3.462000000
H    -1.581000000    -3.723000000     3.707000000
C     1.731000000    -3.357000000     3.281000000
H     2.495000000    -2.584000000     3.256000000
C     2.072000000    -4.655000000     2.754000000
O     3.396000000    -4.961000000     2.455000000
C     1.032000000    -5.564000000     2.614000000
H     1.282000000    -6.571000000     2.288000000
C    -0.291000000    -5.279000000     2.919000000
O    -1.231000000    -6.308000000     2.811000000
C    -2.579000000    -5.963000000     2.633000000
C    -3.139000000    -5.805000000     1.358000000
H    -2.546000000    -6.026000000     0.474000000
C    -3.329000000    -5.896000000     3.773000000
H    -2.839000000    -6.047000000     4.731000000
C    -4.720000000    -5.693000000     3.684000000
H    -5.434000000    -5.806000000     4.496000000
C    -5.305000000    -5.527000000     2.421000000
H    -6.374000000    -5.353000000     2.321000000
C    -4.506000000    -5.571000000     1.290000000
O    -5.039000000    -5.293000000     0.009000000
C    -4.697000000    -4.101000000    -0.595000000
C    -4.656000000    -3.989000000    -1.990000000
H    -4.629000000    -4.880000000    -2.612000000
C    -4.374000000    -2.816000000    -2.683000000
O    -4.197000000    -2.869000000    -4.002000000
C    -4.236000000    -1.746000000    -4.819000000
C    -3.042000000    -1.173000000    -5.346000000
H    -2.040000000    -1.543000000    -5.145000000
C    -5.434000000    -1.166000000    -4.924000000
H    -6.303000000    -1.633000000    -4.466000000
C    -5.521000000    -0.013000000    -5.733000000
H    -6.497000000     0.397000000    -5.979000000
C    -4.413000000     0.564000000    -6.422000000
H    -4.513000000     1.464000000    -7.024000000
C    -3.194000000    -0.027000000    -6.112000000
O    -2.087000000     0.625000000    -6.705000000
C    -1.113000000     1.181000000    -6.059000000
C     0.127000000     1.282000000    -6.591000000
H     0.275000000     1.050000000    -7.643000000
C     1.167000000     1.806000000    -5.830000000
O     2.431000000     1.614000000    -6.260000000
C     3.543000000     2.140000000    -5.721000000
C     4.234000000     1.334000000    -4.743000000
H     4.065000000     0.272000000    -4.584000000
C     3.971000000     3.458000000    -5.878000000
H     3.398000000     4.101000000    -6.541000000
C     5.043000000     3.963000000    -5.133000000
H     5.562000000     4.902000000    -5.311000000
C     5.837000000     3.133000000    -4.257000000
H     6.733000000     3.557000000    -3.810000000
C     5.291000000     1.893000000    -4.049000000
O     5.984000000     1.046000000    -3.262000000
C     5.757000000     0.680000000    -1.987000000
C     6.313000000    -0.461000000    -1.437000000
H     7.015000000    -1.041000000    -2.030000000
C     6.021000000    -0.869000000    -0.172000000
O     6.507000000    -2.035000000     0.299000000
C     6.079000000    -2.767000000     1.326000000
C     6.913000000    -2.759000000     2.477000000
H     7.810000000    -2.147000000     2.435000000
C     6.563000000    -3.541000000     3.561000000
H     7.284000000    -3.659000000     4.366000000
C     5.355000000    -4.182000000     3.615000000
H     4.911000000    -4.545000000     4.538000000
C     4.522000000    -4.179000000     2.456000000
C     4.918000000    -3.549000000     1.288000000
H     4.412000000    -3.674000000     0.334000000
C     1.722000000    -1.525000000    -1.032000000
H     2.618000000    -1.468000000    -1.644000000
C     1.280000000    -0.311000000    -0.551000000
H     1.846000000     0.564000000    -0.862000000
C     0.168000000    -0.165000000     0.292000000
C    -0.234000000     1.185000000     0.865000000
H    -1.324000000     1.206000000     0.794000000
H     0.118000000     1.278000000     1.894000000
H     0.132000000     2.041000000     0.293000000
C    -0.610000000    -1.323000000     0.496000000
H    -1.528000000    -1.255000000     1.073000000
C    -0.289000000    -2.564000000    -0.166000000
H    -1.004000000    -3.382000000    -0.143000000
C     0.902000000    -2.620000000    -0.946000000
C     1.316000000    -3.863000000    -1.650000000
O     0.520000000    -4.736000000    -1.937000000
O     2.464000000    -4.060000000    -1.950000000
O    -1.127000000    -7.989000000     0.014000000
H    -1.190000000    -8.165000000     0.953000000
H    -0.215000000    -7.733000000    -0.121000000
O     4.861000000    -6.622000000    -4.207000000
H     4.768000000    -5.676000000    -4.092000000
H     4.741000000    -6.983000000    -3.329000000
O     4.221000000    -7.426000000     1.481000000
H     3.839000000    -6.644000000     1.880000000
H     4.835000000    -7.088000000     0.830000000
O    -3.152000000    -7.568000000    -1.626000000
H    -2.593000000    -6.958000000    -2.107000000
H    -2.645000000    -7.795000000    -0.847000000
O     3.572000000    -1.175000000    -7.177000000
H     3.198000000    -1.403000000    -6.326000000
H     2.815000000    -0.962000000    -7.722000000
O    -1.333000000    -4.680000000    -5.384000000
H    -0.511000000    -4.744000000    -5.871000000
H    -1.980000000    -5.101000000    -5.950000000
O     5.343000000    -4.416000000    -1.911000000
H     5.614000000    -4.111000000    -2.776000000
H     4.404000000    -4.230000000    -1.874000000
O     5.893000000    -6.796000000    -0.416000000
H     5.711000000    -5.939000000    -0.801000000
H     6.847000000    -6.876000000    -0.451000000
O     1.420000000    -7.153000000    -1.013000000
H     0.913000000    -6.393000000    -1.300000000
H     2.263000000    -7.059000000    -1.457000000
O     1.065000000    -7.489000000    -3.961000000
H     0.139000000    -7.714000000    -4.051000000
H     1.383000000    -8.059000000    -3.261000000
O     2.984000000    -6.187000000    -7.066000000
H     2.478000000    -6.393000000    -6.280000000
H     3.376000000    -5.333000000    -6.881000000
O     4.177000000    -8.134000000    -2.098000000
H     3.861000000    -8.850000000    -1.547000000
H     4.773000000    -7.642000000    -1.533000000
O    -0.194000000    -2.478000000    -4.161000000
H    -0.365000000    -2.394000000    -3.223000000
H    -0.494000000    -3.360000000    -4.381000000
O    -1.751000000    -5.729000000    -2.597000000
H    -1.627000000    -5.549000000    -3.529000000
H    -0.876000000    -5.639000000    -2.218000000
O     5.532000000    -3.485000000    -4.562000000
H     4.622000000    -3.410000000    -4.274000000
H     5.486000000    -3.437000000    -5.517000000
O     2.060000000    -5.083000000    -4.573000000
H     2.024000000    -4.707000000    -3.693000000
H     1.702000000    -5.965000000    -4.471000000
O    -0.060000000    -2.169000000    -7.066000000
H    -0.068000000    -2.270000000    -6.114000000
H     0.023000000    -1.226000000    -7.206000000
O     1.844000000    -9.343000000     1.050000000
H     2.452000000    -8.619000000     0.903000000
H     2.405000000   -10.115000000     1.131000000
O     2.702000000    -2.323000000    -4.736000000
H     2.109000000    -2.183000000    -3.998000000
H     2.368000000    -3.111000000    -5.165000000
