218
-1487.57081
C     5.061000000     1.659000000     2.014000000
H     4.986000000     0.940000000     2.826000000
C     3.962000000     2.450000000     1.614000000
C     4.016000000     3.244000000     0.489000000
H     3.176000000     3.909000000     0.305000000
C     2.634000000     2.547000000     2.407000000
O     2.872000000     2.028000000     3.774000000
H     1.896000000     1.892000000     1.921000000
O     2.126000000     3.915000000     2.453000000
C     0.768000000     4.051000000     2.402000000
C     0.258000000     4.308000000     1.132000000
H     0.924000000     4.471000000     0.289000000
C    -1.088000000     4.353000000     0.854000000
O    -1.466000000     4.636000000    -0.443000000
C    -2.013000000     4.031000000     1.908000000
C    -3.547000000     3.985000000     1.662000000
H    -4.060000000     4.109000000     2.618000000
C    -3.961000000     2.688000000     1.055000000
C    -4.417000000     1.662000000     1.857000000
H    -4.526000000     1.844000000     2.923000000
H    -3.713000000     4.843000000     1.007000000
C    -1.520000000     3.686000000     3.184000000
H    -2.184000000     3.360000000     3.980000000
C    -0.110000000     3.620000000     3.466000000
C     0.363000000     3.034000000     4.751000000
H    -0.336000000     3.282000000     5.552000000
H     1.283000000     3.570000000     4.996000000
C     0.752000000     1.555000000     4.733000000
C    -0.215000000     0.566000000     5.089000000
H    -1.159000000     0.826000000     5.561000000
C     1.991000000     1.120000000     4.285000000
C     2.279000000    -0.223000000     4.042000000
H     3.238000000    -0.555000000     3.651000000
C     1.281000000    -1.200000000     4.213000000
O     1.544000000    -2.478000000     3.857000000
C     0.829000000    -2.914000000     2.653000000
C     1.813000000    -3.620000000     1.705000000
C     1.389000000    -4.595000000     0.789000000
H     0.373000000    -4.973000000     0.713000000
C     3.203000000    -3.288000000     1.721000000
H     3.561000000    -2.551000000     2.435000000
O    -0.364000000    -3.689000000     2.993000000
H     0.424000000    -2.007000000     2.181000000
C     0.032000000    -0.822000000     4.686000000
C    -1.095000000    -1.804000000     5.063000000
H    -1.648000000    -1.536000000     5.966000000
H    -0.737000000    -2.765000000     5.439000000
C    -1.936000000    -2.113000000     3.826000000
C    -3.158000000    -1.458000000     3.651000000
H    -3.437000000    -0.641000000     4.311000000
C    -1.602000000    -3.121000000     2.940000000
C    -2.326000000    -3.471000000     1.824000000
H    -2.074000000    -4.321000000     1.196000000
C    -3.518000000    -2.779000000     1.657000000
O    -4.049000000    -3.030000000     0.389000000
C    -3.664000000    -2.045000000    -0.610000000
C    -3.503000000    -2.759000000    -1.965000000
C    -3.099000000    -4.069000000    -2.098000000
H    -2.786000000    -4.639000000    -1.227000000
C    -3.740000000    -1.964000000    -3.170000000
H    -3.931000000    -0.894000000    -3.149000000
O    -4.695000000    -1.064000000    -0.678000000
H    -2.733000000    -1.547000000    -0.302000000
C    -3.894000000    -1.734000000     2.475000000
C    -5.067000000    -0.764000000     2.242000000
H    -5.469000000    -0.381000000     3.183000000
H    -5.940000000    -1.237000000     1.786000000
C    -4.532000000     0.366000000     1.347000000
C    -4.437000000     0.172000000    -0.068000000
C    -4.127000000     1.261000000    -0.908000000
H    -4.189000000     1.070000000    -1.976000000
C    -3.893000000     2.458000000    -0.331000000
O    -3.339000000     3.412000000    -1.132000000
C    -1.867000000     3.454000000    -1.193000000
H    -1.425000000     2.581000000    -0.690000000
C    -1.297000000     3.447000000    -2.640000000
C     0.029000000     3.763000000    -2.899000000
H     0.723000000     4.070000000    -2.121000000
C    -2.113000000     2.928000000    -3.652000000
H    -3.132000000     2.684000000    -3.364000000
C    -1.583000000     2.874000000    -4.979000000
O    -2.395000000     2.650000000    -6.076000000
C    -0.276000000     3.309000000    -5.267000000
H     0.136000000     3.459000000    -6.261000000
C     0.524000000     3.703000000    -4.194000000
O     1.843000000     4.017000000    -4.488000000
C     2.587000000     4.788000000    -3.602000000
C     3.582000000     4.204000000    -2.858000000
H     3.693000000     3.137000000    -3.031000000
C     2.359000000     6.203000000    -3.432000000
H     1.592000000     6.730000000    -3.993000000
C     3.164000000     6.907000000    -2.528000000
H     2.938000000     7.927000000    -2.227000000
C     4.103000000     6.282000000    -1.725000000
H     4.719000000     6.734000000    -0.952000000
C     4.268000000     4.889000000    -1.848000000
O     5.371000000     4.237000000    -1.299000000
C     5.175000000     3.298000000    -0.278000000
C     6.206000000     2.468000000     0.055000000
H     7.195000000     2.481000000    -0.395000000
C     6.123000000     1.638000000     1.135000000
O     7.184000000     0.813000000     1.392000000
C     7.007000000    -0.507000000     1.826000000
C     6.199000000    -1.386000000     1.101000000
H     5.836000000    -1.231000000     0.088000000
C     7.492000000    -0.838000000     3.065000000
H     8.109000000    -0.223000000     3.715000000
C     7.330000000    -2.160000000     3.583000000
H     7.804000000    -2.447000000     4.518000000
C     6.639000000    -3.042000000     2.749000000
H     6.527000000    -4.086000000     3.030000000
C     6.140000000    -2.678000000     1.513000000
O     5.398000000    -3.689000000     0.860000000
C     4.079000000    -3.950000000     0.894000000
C     3.606000000    -4.748000000    -0.189000000
H     4.312000000    -5.230000000    -0.860000000
C     2.252000000    -5.145000000    -0.211000000
O     1.834000000    -5.989000000    -1.193000000
C     0.518000000    -6.468000000    -1.395000000
C    -0.356000000    -5.903000000    -2.336000000
H     0.051000000    -5.279000000    -3.127000000
C     0.094000000    -7.500000000    -0.569000000
H     0.771000000    -7.886000000     0.189000000
C    -1.178000000    -8.016000000    -0.679000000
H    -1.516000000    -8.834000000    -0.047000000
C    -2.107000000    -7.453000000    -1.554000000
H    -3.050000000    -7.960000000    -1.741000000
C    -1.620000000    -6.455000000    -2.442000000
O    -2.469000000    -5.973000000    -3.384000000
C    -2.927000000    -4.622000000    -3.340000000
C    -3.197000000    -3.919000000    -4.493000000
H    -3.212000000    -4.462000000    -5.435000000
C    -3.553000000    -2.594000000    -4.446000000
O    -3.813000000    -1.805000000    -5.536000000
C    -4.123000000    -0.475000000    -5.601000000
C    -5.403000000    -0.096000000    -5.412000000
H    -6.203000000    -0.818000000    -5.266000000
C    -5.694000000     1.262000000    -5.502000000
H    -6.687000000     1.636000000    -5.263000000
C    -4.639000000     2.159000000    -5.759000000
H    -4.961000000     3.198000000    -5.775000000
C    -3.342000000     1.706000000    -5.950000000
C    -3.064000000     0.353000000    -5.994000000
H    -2.026000000     0.064000000    -6.135000000
C     0.440000000     0.459000000    -2.386000000
H    -0.078000000     0.721000000    -3.305000000
C    -0.365000000     0.389000000    -1.273000000
H    -1.450000000     0.361000000    -1.337000000
C     0.231000000     0.182000000     0.029000000
C    -0.713000000     0.254000000     1.249000000
H    -0.162000000     0.398000000     2.181000000
H    -1.442000000     1.064000000     1.187000000
H    -1.267000000    -0.686000000     1.240000000
C     1.540000000    -0.116000000     0.124000000
H     1.934000000    -0.308000000     1.118000000
C     2.399000000    -0.032000000    -1.037000000
H     3.479000000    -0.093000000    -0.933000000
C     1.863000000     0.328000000    -2.286000000
C     2.787000000     0.620000000    -3.473000000
O     4.004000000     0.611000000    -3.230000000
O     2.243000000     0.643000000    -4.561000000
O     3.419000000     4.857000000    -7.907000000
H     3.443000000     3.997000000    -7.487000000
H     4.286000000     4.956000000    -8.299000000
O     1.365000000    -2.805000000    -2.837000000
H     0.576000000    -2.579000000    -2.346000000
H     1.174000000    -2.534000000    -3.735000000
O     0.207000000    -1.025000000    -7.987000000
H    -0.201000000    -1.748000000    -8.465000000
H     0.725000000    -0.565000000    -8.647000000
O     3.579000000    -5.462000000    -3.448000000
H     3.218000000    -4.874000000    -4.111000000
H     2.931000000    -5.452000000    -2.742000000
O     7.301000000    -3.469000000    -4.858000000
H     6.804000000    -3.699000000    -4.073000000
H     7.953000000    -2.838000000    -4.553000000
O     7.651000000     1.853000000    -4.251000000
H     7.736000000     2.744000000    -3.913000000
H     6.750000000     1.804000000    -4.572000000
O     5.914000000     0.604000000    -8.006000000
H     6.409000000    -0.192000000    -7.815000000
H     5.190000000     0.593000000    -7.379000000
O     3.587000000    -0.593000000    -6.321000000
H     4.292000000    -1.072000000    -5.885000000
H     3.107000000    -0.171000000    -5.608000000
O     9.104000000     0.157000000    -0.916000000
H     9.132000000    -0.694000000    -0.480000000
H     8.223000000     0.206000000    -1.288000000
O     3.462000000    -2.485000000    -9.227000000
H     4.043000000    -1.879000000    -9.688000000
H     3.218000000    -2.020000000    -8.426000000
O     6.518000000     0.176000000    -2.137000000
H     5.582000000     0.028000000    -2.002000000
H     6.562000000     0.990000000    -2.638000000
O     2.689000000     2.264000000    -7.049000000
H     2.813000000     1.465000000    -7.560000000
H     2.264000000     1.969000000    -6.243000000
O     5.851000000    -4.362000000    -2.820000000
H     5.135000000    -4.802000000    -3.278000000
H     5.492000000    -3.509000000    -2.577000000
O     4.353000000    -1.977000000    -3.684000000
H     3.422000000    -2.142000000    -3.536000000
H     4.441000000    -1.026000000    -3.622000000
O     5.203000000     1.745000000    -5.436000000
H     4.725000000     1.536000000    -4.633000000
H     4.540000000     2.115000000    -6.019000000
O     2.078000000    -4.178000000    -5.612000000
H     2.335000000    -3.256000000    -5.598000000
H     1.131000000    -4.161000000    -5.750000000
O    -0.523000000     1.984000000    -8.554000000
H    -0.550000000     1.773000000    -7.621000000
H     0.383000000     1.815000000    -8.813000000
O     7.309000000    -1.720000000    -7.146000000
H     7.309000000    -2.106000000    -6.270000000
H     8.139000000    -2.001000000    -7.532000000
O     0.997000000    -1.632000000    -5.225000000
H     1.416000000    -0.779000000    -5.110000000
H     0.544000000    -1.566000000    -6.065000000
