218
-1477.98517
C     5.102000000     0.957000000     0.780000000
H     4.861000000     0.287000000     1.602000000
C     4.282000000     2.056000000     0.686000000
C     4.492000000     2.929000000    -0.369000000
H     3.750000000     3.718000000    -0.460000000
C     3.136000000     2.261000000     1.700000000
O     3.498000000     1.710000000     2.976000000
H     2.226000000     1.783000000     1.309000000
O     2.869000000     3.623000000     2.013000000
C     1.560000000     3.882000000     2.114000000
C     0.992000000     4.358000000     0.889000000
H     1.567000000     4.395000000    -0.032000000
C    -0.400000000     4.611000000     0.821000000
O    -0.941000000     4.858000000    -0.402000000
C    -1.176000000     4.360000000     1.963000000
C    -2.687000000     4.482000000     1.817000000
H    -3.105000000     4.791000000     2.777000000
C    -3.332000000     3.189000000     1.347000000
C    -3.746000000     2.118000000     2.196000000
H    -3.793000000     2.353000000     3.256000000
H    -2.960000000     5.371000000     1.244000000
C    -0.627000000     3.984000000     3.202000000
H    -1.225000000     3.741000000     4.076000000
C     0.786000000     3.725000000     3.269000000
C     1.445000000     3.107000000     4.468000000
H     0.933000000     3.374000000     5.395000000
H     2.433000000     3.571000000     4.494000000
C     1.505000000     1.597000000     4.460000000
C     0.514000000     0.747000000     4.934000000
H    -0.365000000     1.154000000     5.429000000
C     2.499000000     0.955000000     3.686000000
C     2.525000000    -0.450000000     3.478000000
H     3.438000000    -0.727000000     2.959000000
C     1.558000000    -1.242000000     3.997000000
O     1.536000000    -2.593000000     3.767000000
C     0.709000000    -3.018000000     2.651000000
C     1.410000000    -4.008000000     1.728000000
C     0.804000000    -5.202000000     1.210000000
H    -0.190000000    -5.436000000     1.583000000
C     2.749000000    -3.770000000     1.402000000
H     3.232000000    -2.874000000     1.785000000
O    -0.463000000    -3.670000000     3.229000000
H     0.362000000    -2.081000000     2.193000000
C     0.549000000    -0.632000000     4.721000000
C    -0.601000000    -1.515000000     5.312000000
H    -1.028000000    -0.966000000     6.154000000
H    -0.264000000    -2.424000000     5.814000000
C    -1.708000000    -1.862000000     4.322000000
C    -2.838000000    -1.050000000     4.203000000
H    -2.826000000    -0.189000000     4.866000000
C    -1.564000000    -2.934000000     3.428000000
C    -2.534000000    -3.105000000     2.417000000
H    -2.344000000    -3.909000000     1.710000000
C    -3.573000000    -2.212000000     2.224000000
O    -4.334000000    -2.333000000     1.118000000
C    -4.020000000    -1.569000000    -0.056000000
C    -3.973000000    -2.382000000    -1.373000000
C    -3.819000000    -3.831000000    -1.434000000
H    -3.852000000    -4.417000000    -0.519000000
C    -3.839000000    -1.589000000    -2.520000000
H    -3.897000000    -0.505000000    -2.572000000
O    -4.895000000    -0.426000000    -0.195000000
H    -2.968000000    -1.273000000     0.064000000
C    -3.724000000    -1.139000000     3.121000000
C    -4.795000000    -0.122000000     2.774000000
H    -5.177000000     0.353000000     3.679000000
H    -5.667000000    -0.659000000     2.394000000
C    -4.299000000     0.941000000     1.722000000
C    -4.499000000     0.757000000     0.370000000
C    -4.012000000     1.681000000    -0.483000000
H    -4.077000000     1.413000000    -1.534000000
C    -3.461000000     2.883000000    -0.047000000
O    -2.943000000     3.737000000    -0.925000000
C    -1.498000000     3.783000000    -1.133000000
H    -1.062000000     2.816000000    -0.841000000
C    -1.226000000     3.855000000    -2.668000000
C     0.027000000     4.249000000    -3.140000000
H     0.842000000     4.604000000    -2.515000000
C    -2.142000000     3.507000000    -3.621000000
H    -3.127000000     3.135000000    -3.350000000
C    -1.853000000     3.460000000    -4.971000000
O    -2.671000000     2.930000000    -5.902000000
C    -0.554000000     3.762000000    -5.414000000
H    -0.177000000     3.513000000    -6.403000000
C     0.381000000     4.158000000    -4.469000000
O     1.719000000     4.254000000    -4.901000000
C     2.720000000     4.741000000    -4.062000000
C     3.757000000     3.900000000    -3.721000000
H     3.764000000     2.863000000    -4.047000000
C     2.753000000     6.089000000    -3.634000000
H     2.040000000     6.820000000    -4.006000000
C     3.725000000     6.641000000    -2.881000000
H     3.805000000     7.719000000    -2.769000000
C     4.711000000     5.781000000    -2.466000000
H     5.509000000     6.199000000    -1.859000000
C     4.713000000     4.452000000    -2.787000000
O     5.684000000     3.636000000    -2.292000000
C     5.567000000     2.794000000    -1.251000000
C     6.486000000     1.765000000    -1.058000000
H     7.333000000     1.745000000    -1.739000000
C     6.221000000     0.853000000    -0.043000000
O     7.138000000    -0.267000000     0.061000000
C     6.680000000    -1.342000000     0.795000000
C     5.881000000    -2.273000000     0.152000000
H     5.510000000    -2.104000000    -0.855000000
C     7.193000000    -1.530000000     2.024000000
H     7.811000000    -0.711000000     2.384000000
C     6.809000000    -2.668000000     2.790000000
H     7.176000000    -2.707000000     3.812000000
C     6.003000000    -3.637000000     2.187000000
H     5.617000000    -4.508000000     2.711000000
C     5.514000000    -3.396000000     0.899000000
O     4.729000000    -4.376000000     0.260000000
C     3.497000000    -4.641000000     0.607000000
C     2.892000000    -5.735000000     0.024000000
H     3.487000000    -6.407000000    -0.590000000
C     1.491000000    -5.983000000     0.296000000
O     0.774000000    -6.985000000    -0.372000000
C    -0.615000000    -7.055000000    -0.453000000
C    -1.261000000    -6.445000000    -1.518000000
H    -0.630000000    -5.738000000    -2.050000000
C    -1.400000000    -7.776000000     0.465000000
H    -0.989000000    -8.174000000     1.389000000
C    -2.786000000    -7.891000000     0.274000000
H    -3.289000000    -8.605000000     0.921000000
C    -3.441000000    -7.293000000    -0.804000000
H    -4.507000000    -7.372000000    -1.001000000
C    -2.666000000    -6.503000000    -1.655000000
O    -3.291000000    -5.843000000    -2.705000000
C    -3.519000000    -4.482000000    -2.654000000
C    -3.589000000    -3.716000000    -3.769000000
H    -3.494000000    -4.209000000    -4.733000000
C    -3.780000000    -2.332000000    -3.725000000
O    -3.656000000    -1.599000000    -4.839000000
C    -4.095000000    -0.319000000    -5.042000000
C    -5.446000000     0.088000000    -4.945000000
H    -6.153000000    -0.717000000    -4.761000000
C    -5.897000000     1.399000000    -5.153000000
H    -6.974000000     1.545000000    -5.172000000
C    -4.913000000     2.330000000    -5.509000000
H    -5.148000000     3.365000000    -5.742000000
C    -3.589000000     1.912000000    -5.604000000
C    -3.149000000     0.595000000    -5.439000000
H    -2.089000000     0.354000000    -5.430000000
C     0.044000000    -0.029000000    -2.690000000
H    -0.569000000     0.152000000    -3.569000000
C    -0.692000000     0.035000000    -1.466000000
H    -1.767000000     0.185000000    -1.404000000
C    -0.013000000    -0.119000000    -0.219000000
C    -0.738000000    -0.074000000     1.070000000
H    -1.360000000    -0.971000000     1.106000000
H    -0.078000000     0.055000000     1.930000000
H    -1.371000000     0.815000000     1.010000000
C     1.341000000    -0.388000000    -0.205000000
H     1.828000000    -0.500000000     0.760000000
C     2.098000000    -0.464000000    -1.365000000
H     3.139000000    -0.777000000    -1.366000000
C     1.453000000    -0.253000000    -2.597000000
C     2.269000000    -0.384000000    -3.899000000
O     3.427000000    -0.767000000    -3.896000000
O     1.672000000    -0.298000000    -4.963000000
O     2.656000000     4.961000000    -7.276000000
H     2.415000000     4.621000000    -6.415000000
H     3.337000000     4.365000000    -7.588000000
O     0.217000000    -3.539000000    -2.732000000
H    -0.129000000    -2.875000000    -2.136000000
H     0.125000000    -3.151000000    -3.602000000
O     7.058000000    -3.529000000    -5.791000000
H     6.225000000    -3.348000000    -6.226000000
H     7.649000000    -2.848000000    -6.111000000
O     4.411000000     3.135000000    -7.790000000
H     4.105000000     2.296000000    -7.446000000
H     5.204000000     3.324000000    -7.290000000
O     7.802000000     2.538000000    -4.521000000
H     6.968000000     2.205000000    -4.191000000
H     8.313000000     1.751000000    -4.714000000
O     6.223000000     0.165000000    -8.656000000
H     6.732000000     0.626000000    -7.990000000
H     6.639000000    -0.695000000    -8.724000000
O     4.382000000    -2.534000000    -6.269000000
H     4.241000000    -2.500000000    -7.215000000
H     4.010000000    -1.715000000    -5.941000000
O    -1.272000000    -5.680000000    -5.701000000
H    -0.860000000    -6.363000000    -5.171000000
H    -0.552000000    -5.100000000    -5.947000000
O     5.738000000     0.572000000    -4.525000000
H     5.016000000     0.094000000    -4.117000000
H     5.626000000     0.419000000    -5.464000000
O    -0.110000000     1.073000000    -6.860000000
H     0.305000000     1.461000000    -7.630000000
H     0.556000000     1.126000000    -6.175000000
O     2.495000000    -5.104000000    -3.506000000
H     3.102000000    -4.400000000    -3.281000000
H     1.632000000    -4.759000000    -3.280000000
O     4.438000000    -3.090000000    -3.321000000
H     3.980000000    -2.263000000    -3.472000000
H     4.692000000    -3.386000000    -4.195000000
O     1.312000000     2.294000000    -8.902000000
H     2.145000000     1.891000000    -8.654000000
H     1.544000000     2.915000000    -9.593000000
O     3.455000000     0.650000000    -6.686000000
H     3.016000000     0.400000000    -5.873000000
H     3.521000000    -0.165000000    -7.183000000
O     1.685000000    -4.580000000    -5.979000000
H     1.482000000    -3.646000000    -5.925000000
H     2.244000000    -4.748000000    -5.220000000
O    -2.380000000     1.150000000    -8.489000000
H    -2.965000000     1.271000000    -7.741000000
H    -1.504000000     1.111000000    -8.104000000
O     3.038000000    -1.582000000    -8.443000000
H     3.714000000    -1.568000000    -9.121000000
H     2.260000000    -1.918000000    -8.887000000
O    -0.016000000    -1.964000000    -5.739000000
H     0.592000000    -1.288000000    -5.438000000
H    -0.378000000    -1.614000000    -6.553000000
O     7.107000000    -1.552000000    -3.438000000
H     6.810000000    -0.752000000    -3.871000000
H     6.368000000    -2.155000000    -3.515000000
