218
-1474.30567
C     4.807000000     1.844000000     2.176000000
H     4.495000000     1.128000000     2.932000000
C     3.884000000     2.790000000     1.716000000
C     4.133000000     3.598000000     0.628000000
H     3.324000000     4.182000000     0.198000000
C     2.577000000     2.850000000     2.460000000
O     2.650000000     2.502000000     3.859000000
H     1.989000000     2.007000000     2.069000000
O     1.930000000     4.131000000     2.307000000
C     0.587000000     4.252000000     2.067000000
C     0.204000000     4.408000000     0.766000000
H     0.979000000     4.679000000     0.054000000
C    -1.174000000     4.481000000     0.449000000
O    -1.488000000     4.763000000    -0.857000000
C    -2.098000000     4.174000000     1.439000000
C    -3.619000000     4.189000000     1.211000000
H    -4.162000000     4.296000000     2.152000000
C    -3.990000000     2.847000000     0.576000000
C    -4.448000000     1.790000000     1.441000000
H    -4.393000000     1.902000000     2.521000000
H    -4.005000000     4.891000000     0.469000000
C    -1.623000000     3.916000000     2.770000000
H    -2.374000000     3.715000000     3.530000000
C    -0.280000000     3.850000000     3.089000000
C     0.111000000     3.422000000     4.460000000
H    -0.766000000     3.735000000     5.031000000
H     0.878000000     4.043000000     4.928000000
C     0.439000000     1.936000000     4.553000000
C    -0.563000000     0.987000000     4.864000000
H    -1.527000000     1.341000000     5.220000000
C     1.735000000     1.507000000     4.254000000
C     1.927000000     0.130000000     4.063000000
H     2.859000000    -0.241000000     3.646000000
C     0.982000000    -0.850000000     4.313000000
O     1.363000000    -2.140000000     4.051000000
C     0.731000000    -2.817000000     2.955000000
C     1.689000000    -3.658000000     2.103000000
C     1.224000000    -4.788000000     1.418000000
H     0.237000000    -5.189000000     1.634000000
C     2.959000000    -3.199000000     1.860000000
H     3.400000000    -2.336000000     2.352000000
O    -0.464000000    -3.464000000     3.357000000
H     0.430000000    -1.999000000     2.283000000
C    -0.280000000    -0.403000000     4.864000000
C    -1.355000000    -1.439000000     5.206000000
H    -1.938000000    -1.068000000     6.051000000
H    -0.817000000    -2.296000000     5.615000000
C    -2.070000000    -1.830000000     3.981000000
C    -3.219000000    -1.052000000     3.628000000
H    -3.579000000    -0.303000000     4.329000000
C    -1.653000000    -2.894000000     3.092000000
C    -2.459000000    -3.159000000     1.989000000
H    -2.255000000    -4.010000000     1.344000000
C    -3.523000000    -2.351000000     1.663000000
O    -4.101000000    -2.630000000     0.441000000
C    -3.662000000    -1.811000000    -0.661000000
C    -3.343000000    -2.637000000    -1.879000000
C    -3.150000000    -4.015000000    -1.731000000
H    -3.158000000    -4.556000000    -0.788000000
C    -3.224000000    -2.072000000    -3.175000000
H    -3.230000000    -0.999000000    -3.345000000
O    -4.780000000    -0.934000000    -0.828000000
H    -2.809000000    -1.194000000    -0.340000000
C    -3.888000000    -1.290000000     2.460000000
C    -5.096000000    -0.478000000     2.014000000
H    -5.669000000    -0.106000000     2.866000000
H    -5.874000000    -1.161000000     1.668000000
C    -4.712000000     0.531000000     1.011000000
C    -4.644000000     0.322000000    -0.372000000
C    -4.377000000     1.330000000    -1.299000000
H    -4.405000000     1.116000000    -2.364000000
C    -3.906000000     2.576000000    -0.777000000
O    -3.326000000     3.426000000    -1.738000000
C    -1.887000000     3.657000000    -1.619000000
H    -1.486000000     2.764000000    -1.117000000
C    -1.229000000     3.597000000    -3.013000000
C     0.108000000     3.854000000    -3.125000000
H     0.584000000     4.204000000    -2.213000000
C    -1.962000000     3.087000000    -4.143000000
H    -3.026000000     2.886000000    -4.049000000
C    -1.251000000     2.903000000    -5.405000000
O    -1.915000000     2.343000000    -6.451000000
C     0.101000000     3.216000000    -5.471000000
H     0.724000000     3.083000000    -6.352000000
C     0.821000000     3.727000000    -4.335000000
O     2.165000000     3.984000000    -4.478000000
C     2.893000000     4.714000000    -3.528000000
C     4.020000000     4.148000000    -2.969000000
H     4.370000000     3.126000000    -3.092000000
C     2.425000000     5.928000000    -3.090000000
H     1.469000000     6.330000000    -3.418000000
C     3.097000000     6.639000000    -2.069000000
H     2.774000000     7.655000000    -1.857000000
C     4.286000000     6.049000000    -1.575000000
H     4.765000000     6.444000000    -0.682000000
C     4.734000000     4.753000000    -1.935000000
O     5.666000000     4.071000000    -1.203000000
C     5.352000000     3.393000000    -0.010000000
C     6.343000000     2.526000000     0.422000000
H     7.264000000     2.482000000    -0.153000000
C     6.069000000     1.791000000     1.553000000
O     6.997000000     0.897000000     2.037000000
C     6.898000000    -0.510000000     2.122000000
C     6.066000000    -1.233000000     1.275000000
H     5.524000000    -0.659000000     0.528000000
C     7.607000000    -1.164000000     3.145000000
H     8.122000000    -0.561000000     3.888000000
C     7.410000000    -2.543000000     3.314000000
H     7.822000000    -3.051000000     4.182000000
C     6.514000000    -3.211000000     2.529000000
H     6.278000000    -4.233000000     2.816000000
C     5.850000000    -2.612000000     1.469000000
O     5.009000000    -3.327000000     0.606000000
C     3.795000000    -3.827000000     0.978000000
C     3.321000000    -4.856000000     0.238000000
H     3.804000000    -5.320000000    -0.619000000
C     2.036000000    -5.376000000     0.413000000
O     1.618000000    -6.561000000    -0.319000000
C     0.282000000    -6.933000000    -0.470000000
C    -0.600000000    -6.180000000    -1.255000000
H    -0.199000000    -5.272000000    -1.698000000
C    -0.111000000    -8.196000000     0.027000000
H     0.586000000    -8.832000000     0.567000000
C    -1.472000000    -8.591000000    -0.145000000
H    -1.889000000    -9.518000000     0.240000000
C    -2.309000000    -7.846000000    -1.060000000
H    -3.345000000    -8.075000000    -1.296000000
C    -1.855000000    -6.692000000    -1.667000000
O    -2.618000000    -6.138000000    -2.697000000
C    -2.771000000    -4.794000000    -2.829000000
C    -2.772000000    -4.318000000    -4.119000000
H    -2.544000000    -4.965000000    -4.962000000
C    -2.965000000    -2.887000000    -4.252000000
O    -2.800000000    -2.333000000    -5.517000000
C    -3.326000000    -1.092000000    -5.788000000
C    -4.662000000    -0.925000000    -6.085000000
H    -5.339000000    -1.775000000    -6.092000000
C    -5.081000000     0.407000000    -6.423000000
H    -6.123000000     0.551000000    -6.696000000
C    -4.093000000     1.508000000    -6.501000000
H    -4.459000000     2.506000000    -6.729000000
C    -2.759000000     1.263000000    -6.347000000
C    -2.433000000    -0.042000000    -5.950000000
H    -1.397000000    -0.299000000    -5.745000000
C     0.642000000    -0.010000000    -2.488000000
H     0.257000000     0.007000000    -3.504000000
C    -0.298000000     0.149000000    -1.507000000
H    -1.334000000     0.265000000    -1.815000000
C     0.042000000     0.233000000    -0.143000000
C    -0.979000000     0.296000000     1.003000000
H    -1.164000000    -0.751000000     1.251000000
H    -0.594000000     0.889000000     1.835000000
H    -1.984000000     0.618000000     0.722000000
C     1.354000000     0.107000000     0.258000000
H     1.595000000    -0.050000000     1.307000000
C     2.360000000    -0.046000000    -0.752000000
H     3.401000000    -0.302000000    -0.571000000
C     2.029000000    -0.122000000    -2.128000000
C     3.055000000    -0.285000000    -3.276000000
O     4.242000000    -0.387000000    -3.052000000
O     2.583000000    -0.566000000    -4.311000000
O     3.859000000     3.202000000    -7.823000000
H     3.543000000     2.435000000    -7.345000000
H     4.539000000     2.860000000    -8.403000000
O     1.194000000    -3.110000000    -2.647000000
H     1.146000000    -2.207000000    -2.332000000
H     0.879000000    -3.065000000    -3.550000000
O     0.935000000    -3.244000000    -8.308000000
H     1.628000000    -3.775000000    -7.913000000
H     1.359000000    -2.411000000    -8.513000000
O     3.666000000    -4.459000000    -3.271000000
H     2.848000000    -3.995000000    -3.091000000
H     3.460000000    -5.028000000    -4.013000000
O     8.018000000    -2.760000000    -1.441000000
H     7.084000000    -2.588000000    -1.555000000
H     8.095000000    -3.074000000    -0.540000000
O     7.481000000    -1.401000000    -6.027000000
H     6.677000000    -1.051000000    -5.645000000
H     8.129000000    -1.334000000    -5.325000000
O     8.618000000    -0.924000000    -3.462000000
H     8.510000000    -1.756000000    -3.000000000
H     7.967000000    -0.344000000    -3.068000000
O     7.328000000     2.620000000    -3.022000000
H     6.727000000     3.318000000    -2.764000000
H     7.427000000     2.726000000    -3.968000000
O     7.143000000     2.542000000    -5.834000000
H     7.998000000     2.241000000    -5.528000000
H     6.585000000     1.766000000    -5.790000000
O     3.145000000    -4.320000000    -7.364000000
H     3.775000000    -5.040000000    -7.384000000
H     3.476000000    -3.731000000    -6.686000000
O     6.637000000     0.281000000    -1.727000000
H     5.746000000     0.149000000    -2.051000000
H     6.894000000     1.135000000    -2.075000000
O     3.006000000     1.234000000    -6.123000000
H     2.838000000     0.573000000    -5.452000000
H     2.760000000     2.062000000    -5.710000000
O     5.656000000    -2.697000000    -3.090000000
H     4.993000000    -3.387000000    -3.070000000
H     5.180000000    -1.900000000    -2.856000000
O     4.136000000    -2.564000000    -5.444000000
H     4.838000000    -2.745000000    -4.819000000
H     3.609000000    -1.886000000    -5.022000000
O     2.626000000    -1.104000000    -9.062000000
H     2.286000000    -0.210000000    -9.076000000
H     3.527000000    -1.024000000    -9.375000000
O     5.499000000     0.588000000    -5.065000000
H     5.085000000     0.093000000    -4.358000000
H     4.871000000     0.545000000    -5.787000000
O     1.756000000    -5.385000000    -5.129000000
H     2.204000000    -4.924000000    -5.838000000
H     0.889000000    -5.584000000    -5.482000000
O     0.796000000    -1.994000000    -5.580000000
H     1.466000000    -1.450000000    -5.168000000
H     0.858000000    -1.786000000    -6.513000000
O     7.559000000    -4.179000000    -4.441000000
H     6.972000000    -4.864000000    -4.762000000
H     6.985000000    -3.569000000    -3.977000000
