218
-1452.77502
C     4.309000000    -1.258000000     0.645000000
H     3.694000000    -1.989000000     1.163000000
C     4.391000000     0.038000000     1.181000000
C     5.316000000     0.962000000     0.693000000
H     5.492000000     1.943000000     1.128000000
C     3.412000000     0.419000000     2.296000000
O     3.454000000    -0.485000000     3.407000000
H     2.370000000     0.375000000     1.946000000
O     3.659000000     1.726000000     2.792000000
C     2.576000000     2.533000000     2.835000000
C     2.464000000     3.419000000     1.784000000
H     3.265000000     3.542000000     1.060000000
C     1.308000000     4.189000000     1.595000000
O     1.085000000     4.872000000     0.440000000
C     0.333000000     4.235000000     2.679000000
C    -0.970000000     5.043000000     2.458000000
H    -1.344000000     5.381000000     3.427000000
C    -2.026000000     4.191000000     1.768000000
C    -2.765000000     3.220000000     2.478000000
H    -2.666000000     3.166000000     3.560000000
H    -0.737000000     5.846000000     1.757000000
C     0.516000000     3.407000000     3.839000000
H    -0.262000000     3.247000000     4.580000000
C     1.653000000     2.540000000     3.867000000
C     1.975000000     1.619000000     5.059000000
H     1.433000000     1.987000000     5.933000000
H     3.020000000     1.463000000     5.335000000
C     1.477000000     0.198000000     4.783000000
C     0.203000000    -0.167000000     5.255000000
H    -0.394000000     0.574000000     5.779000000
C     2.235000000    -0.731000000     4.006000000
C     1.656000000    -1.905000000     3.681000000
H     2.188000000    -2.598000000     3.034000000
C     0.401000000    -2.254000000     4.076000000
O    -0.084000000    -3.527000000     3.616000000
C    -0.909000000    -3.472000000     2.396000000
C    -0.468000000    -4.590000000     1.361000000
C    -1.543000000    -5.106000000     0.526000000
H    -2.546000000    -4.720000000     0.687000000
C     0.861000000    -4.958000000     1.097000000
H     1.696000000    -4.468000000     1.592000000
O    -2.266000000    -3.526000000     2.837000000
H    -0.557000000    -2.508000000     2.001000000
C    -0.409000000    -1.412000000     4.839000000
C    -1.782000000    -1.768000000     5.237000000
H    -2.175000000    -1.289000000     6.137000000
H    -1.838000000    -2.833000000     5.471000000
C    -2.826000000    -1.405000000     4.134000000
C    -3.414000000    -0.105000000     4.051000000
H    -3.280000000     0.608000000     4.861000000
C    -3.000000000    -2.342000000     3.050000000
C    -3.734000000    -1.956000000     1.944000000
H    -3.710000000    -2.752000000     1.204000000
C    -4.344000000    -0.743000000     1.928000000
O    -5.087000000    -0.496000000     0.755000000
C    -4.429000000     0.335000000    -0.246000000
C    -4.578000000    -0.176000000    -1.641000000
C    -4.729000000    -1.519000000    -1.910000000
H    -4.782000000    -2.190000000    -1.056000000
C    -4.398000000     0.669000000    -2.701000000
H    -4.210000000     1.730000000    -2.559000000
O    -4.793000000     1.809000000    -0.168000000
H    -3.356000000     0.236000000    -0.028000000
C    -4.204000000     0.195000000     2.988000000
C    -4.800000000     1.604000000     2.627000000
H    -5.124000000     2.182000000     3.495000000
H    -5.710000000     1.492000000     2.034000000
C    -3.796000000     2.490000000     1.837000000
C    -3.909000000     2.657000000     0.458000000
C    -3.026000000     3.338000000    -0.289000000
H    -3.113000000     3.362000000    -1.372000000
C    -2.076000000     4.127000000     0.344000000
O    -1.140000000     4.727000000    -0.433000000
C     0.189000000     4.165000000    -0.439000000
H     0.188000000     3.079000000    -0.264000000
C     0.802000000     4.174000000    -1.838000000
C     2.151000000     4.423000000    -2.062000000
H     2.686000000     4.737000000    -1.169000000
C     0.054000000     3.648000000    -2.914000000
H    -1.029000000     3.571000000    -2.871000000
C     0.664000000     3.317000000    -4.063000000
O    -0.051000000     2.662000000    -5.037000000
C     2.011000000     3.595000000    -4.279000000
H     2.498000000     3.319000000    -5.211000000
C     2.789000000     4.066000000    -3.248000000
O     4.034000000     4.439000000    -3.475000000
C     5.102000000     4.295000000    -2.637000000
C     5.416000000     3.009000000    -2.185000000
H     4.835000000     2.125000000    -2.436000000
C     5.805000000     5.415000000    -2.226000000
H     5.429000000     6.397000000    -2.499000000
C     6.891000000     5.268000000    -1.334000000
H     7.373000000     6.184000000    -1.001000000
C     7.156000000     4.011000000    -0.877000000
H     7.938000000     3.858000000    -0.138000000
C     6.546000000     2.891000000    -1.404000000
O     7.026000000     1.657000000    -0.971000000
C     6.142000000     0.682000000    -0.411000000
C     5.991000000    -0.536000000    -1.030000000
H     6.582000000    -0.690000000    -1.929000000
C     5.118000000    -1.511000000    -0.508000000
O     4.941000000    -2.658000000    -1.239000000
C     4.831000000    -3.842000000    -0.582000000
C     3.639000000    -4.587000000    -0.571000000
H     2.755000000    -4.143000000    -1.022000000
C     5.956000000    -4.359000000    -0.017000000
H     6.926000000    -3.875000000    -0.096000000
C     5.805000000    -5.538000000     0.651000000
H     6.586000000    -6.073000000     1.183000000
C     4.694000000    -6.261000000     0.635000000
H     4.619000000    -7.213000000     1.153000000
C     3.579000000    -5.752000000     0.000000000
O     2.429000000    -6.457000000     0.126000000
C     1.130000000    -5.979000000     0.174000000
C     0.071000000    -6.593000000    -0.516000000
H     0.292000000    -7.443000000    -1.157000000
C    -1.254000000    -6.139000000    -0.396000000
O    -2.238000000    -6.759000000    -1.143000000
C    -3.386000000    -6.098000000    -1.435000000
C    -3.422000000    -4.897000000    -2.199000000
H    -2.600000000    -4.342000000    -2.645000000
C    -4.567000000    -6.753000000    -1.022000000
H    -4.334000000    -7.626000000    -0.416000000
C    -5.800000000    -6.159000000    -1.306000000
H    -6.704000000    -6.607000000    -0.900000000
C    -5.848000000    -5.074000000    -2.143000000
H    -6.751000000    -4.588000000    -2.505000000
C    -4.660000000    -4.467000000    -2.585000000
O    -4.780000000    -3.387000000    -3.492000000
C    -4.811000000    -2.016000000    -3.182000000
C    -4.839000000    -1.116000000    -4.236000000
H    -4.803000000    -1.456000000    -5.267000000
C    -4.626000000     0.225000000    -3.999000000
O    -4.593000000     1.078000000    -5.072000000
C    -3.737000000     2.054000000    -5.317000000
C    -4.031000000     3.281000000    -5.944000000
H    -5.068000000     3.399000000    -6.247000000
C    -3.068000000     4.229000000    -6.300000000
H    -3.374000000     5.126000000    -6.830000000
C    -1.750000000     3.952000000    -6.019000000
H    -0.950000000     4.661000000    -6.219000000
C    -1.414000000     2.785000000    -5.351000000
C    -2.372000000     1.846000000    -4.995000000
H    -1.996000000     0.944000000    -4.520000000
C    -0.295000000    -1.617000000    -1.582000000
H    -0.842000000    -2.448000000    -2.019000000
C    -0.774000000    -1.072000000    -0.450000000
H    -1.692000000    -1.472000000    -0.027000000
C    -0.158000000     0.046000000     0.163000000
C    -0.612000000     0.666000000     1.448000000
H    -0.384000000     1.734000000     1.443000000
H    -1.667000000     0.451000000     1.630000000
H     0.029000000     0.215000000     2.208000000
C     0.994000000     0.596000000    -0.455000000
H     1.590000000     1.422000000    -0.074000000
C     1.457000000    -0.019000000    -1.632000000
H     2.376000000     0.344000000    -2.084000000
C     0.872000000    -1.153000000    -2.215000000
C     1.364000000    -1.743000000    -3.555000000
O     2.265000000    -1.230000000    -4.246000000
O     0.844000000    -2.798000000    -3.845000000
O    -1.621000000    -2.572000000    -5.042000000
H    -0.774000000    -2.450000000    -4.614000000
H    -1.783000000    -3.514000000    -4.989000000
O     5.203000000     2.921000000    -6.653000000
H     5.254000000     2.446000000    -7.482000000
H     4.686000000     2.353000000    -6.083000000
O     0.764000000    -0.361000000    -9.374000000
H     1.133000000    -0.169000000    -8.512000000
H     0.989000000    -1.277000000    -9.532000000
O    -0.524000000    -7.317000000    -3.735000000
H    -1.066000000    -8.057000000    -3.461000000
H    -1.097000000    -6.556000000    -3.649000000
O     1.688000000    -5.395000000    -3.377000000
H     1.317000000    -4.539000000    -3.589000000
H     0.934000000    -5.984000000    -3.352000000
O     4.850000000    -2.980000000    -5.189000000
H     4.080000000    -2.413000000    -5.153000000
H     5.592000000    -2.382000000    -5.103000000
O    -1.650000000    -3.088000000    -9.452000000
H    -2.525000000    -3.063000000    -9.065000000
H    -1.166000000    -2.400000000    -8.994000000
O     0.986000000    -6.876000000    -6.788000000
H     0.415000000    -7.586000000    -6.494000000
H     0.532000000    -6.501000000    -7.543000000
O     2.754000000    -7.902000000    -4.157000000
H     1.868000000    -7.566000000    -4.299000000
H     3.292000000    -7.118000000    -4.048000000
O     1.183000000    -0.713000000    -6.745000000
H     0.714000000    -1.536000000    -6.606000000
H     1.753000000    -0.631000000    -5.981000000
O    -2.669000000    -5.284000000    -5.000000000
H    -2.979000000    -6.155000000    -4.750000000
H    -3.216000000    -5.041000000    -5.747000000
O     3.622000000    -5.965000000    -6.505000000
H     2.765000000    -6.374000000    -6.385000000
H     3.444000000    -5.025000000    -6.485000000
O     4.610000000     0.356000000    -8.153000000
H     5.515000000     0.201000000    -8.422000000
H     4.250000000    -0.519000000    -8.008000000
O     4.198000000     0.943000000    -4.737000000
H     3.328000000     0.544000000    -4.740000000
H     4.798000000     0.208000000    -4.612000000
O     6.543000000    -0.899000000    -5.232000000
H     6.838000000    -0.274000000    -5.895000000
H     7.277000000    -0.964000000    -4.621000000
O     4.598000000    -5.661000000    -3.584000000
H     4.960000000    -4.856000000    -3.955000000
H     3.661000000    -5.484000000    -3.496000000
O     1.936000000    -3.617000000    -6.350000000
H     1.774000000    -3.173000000    -5.518000000
H     1.212000000    -4.237000000    -6.436000000
O     3.668000000    -2.219000000    -8.353000000
H     2.886000000    -2.455000000    -8.853000000
H     3.506000000    -2.566000000    -7.476000000
O    -1.730000000    -1.067000000    -7.392000000
H    -0.797000000    -0.880000000    -7.289000000
H    -1.973000000    -1.523000000    -6.586000000
