218
-1453.26236
C     4.368000000    -1.947000000     1.829000000
H     3.682000000    -2.726000000     2.150000000
C     4.108000000    -0.605000000     2.323000000
C     5.060000000     0.337000000     2.220000000
H     4.857000000     1.359000000     2.531000000
C     2.761000000    -0.323000000     2.977000000
O     2.346000000    -1.410000000     3.798000000
H     2.016000000    -0.167000000     2.184000000
O     2.957000000     0.844000000     3.856000000
C     2.003000000     1.794000000     3.855000000
C     2.188000000     2.927000000     3.007000000
H     3.125000000     3.214000000     2.536000000
C     1.061000000     3.784000000     2.833000000
O     1.135000000     4.691000000     1.801000000
C    -0.158000000     3.588000000     3.549000000
C    -1.427000000     4.462000000     3.264000000
H    -2.074000000     4.553000000     4.138000000
C    -2.229000000     3.867000000     2.144000000
C    -3.283000000     3.030000000     2.411000000
H    -3.590000000     2.931000000     3.449000000
H    -1.156000000     5.502000000     3.072000000
C    -0.275000000     2.468000000     4.388000000
H    -1.245000000     2.208000000     4.804000000
C     0.769000000     1.600000000     4.529000000
C     0.502000000     0.368000000     5.467000000
H    -0.173000000     0.627000000     6.286000000
H     1.456000000     0.137000000     5.945000000
C     0.052000000    -0.939000000     4.655000000
C    -1.289000000    -1.231000000     4.728000000
H    -1.952000000    -0.552000000     5.258000000
C     0.964000000    -1.662000000     3.950000000
C     0.604000000    -2.832000000     3.367000000
H     1.408000000    -3.433000000     2.952000000
C    -0.733000000    -3.205000000     3.279000000
O    -1.152000000    -4.277000000     2.486000000
C    -1.822000000    -3.845000000     1.255000000
C    -1.312000000    -4.570000000    -0.007000000
C    -2.143000000    -5.132000000    -1.001000000
H    -3.220000000    -4.990000000    -0.991000000
C     0.075000000    -4.752000000    -0.186000000
H     0.708000000    -4.310000000     0.580000000
O    -3.265000000    -4.021000000     1.339000000
H    -1.662000000    -2.773000000     1.068000000
C    -1.700000000    -2.425000000     4.013000000
C    -3.199000000    -2.779000000     3.971000000
H    -3.679000000    -2.366000000     4.861000000
H    -3.390000000    -3.854000000     3.974000000
C    -3.892000000    -2.127000000     2.785000000
C    -4.295000000    -0.792000000     2.885000000
H    -4.393000000    -0.259000000     3.827000000
C    -3.941000000    -2.844000000     1.531000000
C    -4.382000000    -2.133000000     0.354000000
H    -4.409000000    -2.566000000    -0.642000000
C    -4.687000000    -0.788000000     0.473000000
O    -4.995000000    -0.068000000    -0.635000000
C    -3.905000000     0.697000000    -1.155000000
C    -3.490000000     0.309000000    -2.572000000
C    -4.073000000    -0.778000000    -3.308000000
H    -4.783000000    -1.455000000    -2.841000000
C    -2.570000000     1.139000000    -3.190000000
H    -1.974000000     1.840000000    -2.611000000
O    -4.204000000     2.100000000    -0.941000000
H    -3.000000000     0.430000000    -0.590000000
C    -4.670000000    -0.104000000     1.707000000
C    -5.089000000     1.385000000     1.803000000
H    -5.425000000     1.611000000     2.817000000
H    -5.904000000     1.610000000     1.112000000
C    -4.018000000     2.385000000     1.395000000
C    -3.610000000     2.684000000     0.107000000
C    -2.606000000     3.534000000    -0.183000000
H    -2.305000000     3.738000000    -1.208000000
C    -1.879000000     4.122000000     0.822000000
O    -0.759000000     4.892000000     0.477000000
C     0.542000000     4.317000000     0.586000000
H     0.346000000     3.236000000     0.640000000
C     1.471000000     4.685000000    -0.555000000
C     2.837000000     4.258000000    -0.503000000
H     3.175000000     3.861000000     0.450000000
C     0.956000000     5.136000000    -1.752000000
H    -0.094000000     5.398000000    -1.860000000
C     1.806000000     5.206000000    -2.838000000
O     1.251000000     5.591000000    -4.009000000
C     3.193000000     4.841000000    -2.776000000
H     3.752000000     5.014000000    -3.692000000
C     3.706000000     4.443000000    -1.573000000
O     5.005000000     4.138000000    -1.515000000
C     5.641000000     3.882000000    -0.275000000
C     5.938000000     2.568000000     0.026000000
H     5.705000000     1.805000000    -0.712000000
C     5.921000000     4.930000000     0.602000000
H     5.602000000     5.933000000     0.330000000
C     6.703000000     4.676000000     1.769000000
H     7.142000000     5.514000000     2.304000000
C     7.093000000     3.370000000     2.009000000
H     7.692000000     3.108000000     2.878000000
C     6.726000000     2.325000000     1.098000000
O     7.140000000     1.063000000     1.277000000
C     6.217000000     0.060000000     1.498000000
C     6.474000000    -1.213000000     0.955000000
H     7.449000000    -1.404000000     0.513000000
C     5.557000000    -2.229000000     1.167000000
O     5.893000000    -3.464000000     0.768000000
C     4.934000000    -4.422000000     0.538000000
C     3.829000000    -4.179000000    -0.250000000
H     3.796000000    -3.273000000    -0.849000000
C     5.083000000    -5.685000000     1.092000000
H     5.960000000    -5.788000000     1.726000000
C     4.199000000    -6.709000000     0.796000000
H     4.359000000    -7.692000000     1.230000000
C     3.198000000    -6.473000000    -0.098000000
H     2.544000000    -7.296000000    -0.378000000
C     2.983000000    -5.247000000    -0.619000000
O     1.996000000    -5.029000000    -1.528000000
C     0.683000000    -5.256000000    -1.337000000
C    -0.171000000    -5.702000000    -2.307000000
H     0.237000000    -6.031000000    -3.260000000
C    -1.506000000    -5.614000000    -2.153000000
O    -2.338000000    -6.009000000    -3.138000000
C    -3.333000000    -5.321000000    -3.758000000
C    -3.117000000    -3.952000000    -4.174000000
H    -2.276000000    -3.403000000    -3.757000000
C    -4.346000000    -6.143000000    -4.258000000
H    -4.395000000    -7.204000000    -4.026000000
C    -5.230000000    -5.545000000    -5.159000000
H    -6.102000000    -6.053000000    -5.564000000
C    -5.156000000    -4.168000000    -5.458000000
H    -5.915000000    -3.800000000    -6.144000000
C    -4.138000000    -3.350000000    -4.968000000
O    -4.085000000    -2.045000000    -5.314000000
C    -3.538000000    -1.035000000    -4.571000000
C    -2.759000000    -0.108000000    -5.222000000
H    -2.554000000    -0.206000000    -6.285000000
C    -2.293000000     0.994000000    -4.542000000
O    -1.342000000     1.832000000    -5.216000000
C    -1.300000000     3.198000000    -4.965000000
C    -2.285000000     4.037000000    -5.449000000
H    -3.209000000     3.662000000    -5.880000000
C    -2.090000000     5.414000000    -5.495000000
H    -2.895000000     6.077000000    -5.801000000
C    -0.890000000     5.892000000    -5.094000000
H    -0.791000000     6.974000000    -5.069000000
C     0.050000000     5.101000000    -4.497000000
C    -0.145000000     3.760000000    -4.511000000
H     0.627000000     3.081000000    -4.156000000
C     1.411000000    -1.463000000    -1.793000000
H     1.143000000    -2.229000000    -2.517000000
C     0.351000000    -1.109000000    -0.899000000
H    -0.604000000    -1.626000000    -0.957000000
C     0.519000000     0.004000000    -0.072000000
C    -0.538000000     0.214000000     0.963000000
H    -1.517000000    -0.085000000     0.581000000
H    -0.292000000    -0.456000000     1.789000000
H    -0.599000000     1.219000000     1.384000000
C     1.732000000     0.697000000    -0.155000000
H     1.820000000     1.565000000     0.494000000
C     2.764000000     0.356000000    -0.960000000
H     3.665000000     0.964000000    -0.934000000
C     2.609000000    -0.749000000    -1.780000000
C     3.713000000    -1.260000000    -2.694000000
O     4.826000000    -1.064000000    -2.459000000
O     3.437000000    -1.820000000    -3.737000000
O     5.421000000    -1.069000000    -5.392000000
H     4.720000000    -1.213000000    -4.757000000
H     6.223000000    -1.287000000    -4.918000000
O     7.807000000     3.203000000    -3.038000000
H     7.378000000     3.604000000    -3.793000000
H     7.332000000     2.383000000    -2.901000000
O     8.730000000    -5.876000000    -4.006000000
H     9.165000000    -6.488000000    -4.599000000
H     8.059000000    -5.457000000    -4.546000000
O     8.395000000    -4.569000000     0.407000000
H     7.484000000    -4.759000000     0.631000000
H     8.661000000    -3.898000000     1.037000000
O     3.681000000    -6.942000000    -3.450000000
H     3.415000000    -6.067000000    -3.733000000
H     3.209000000    -7.536000000    -4.034000000
O     3.686000000    -3.003000000    -8.767000000
H     4.099000000    -2.145000000    -8.863000000
H     4.181000000    -3.429000000    -8.066000000
O     6.446000000     0.882000000    -3.237000000
H     5.812000000     0.341000000    -2.767000000
H     6.086000000     0.962000000    -4.120000000
O     6.006000000    -5.411000000    -4.381000000
H     6.012000000    -4.755000000    -3.683000000
H     5.206000000    -5.914000000    -4.231000000
O     2.766000000    -4.308000000    -4.025000000
H     2.966000000    -3.380000000    -4.153000000
H     2.714000000    -4.413000000    -3.075000000
O     2.762000000    -5.760000000    -6.566000000
H     2.617000000    -5.110000000    -5.878000000
H     3.563000000    -5.470000000    -7.003000000
O     8.567000000    -3.056000000    -5.119000000
H     8.005000000    -3.180000000    -4.354000000
H     8.090000000    -3.472000000    -5.837000000
O     6.530000000     3.259000000    -5.490000000
H     7.083000000     3.114000000    -6.258000000
H     5.847000000     3.855000000    -5.797000000
O     5.375000000    -4.668000000    -6.817000000
H     5.705000000    -4.914000000    -5.953000000
H     6.121000000    -4.253000000    -7.249000000
O     6.672000000    -2.847000000    -2.980000000
H     5.857000000    -2.346000000    -3.004000000
H     6.988000000    -2.747000000    -2.082000000
O     4.783000000    -0.614000000    -8.204000000
H     5.228000000     0.224000000    -8.335000000
H     5.031000000    -0.880000000    -7.319000000
O    -0.362000000    -1.959000000    -7.128000000
H    -1.097000000    -1.398000000    -6.881000000
H     0.388000000    -1.590000000    -6.661000000
O     1.903000000    -0.853000000    -5.625000000
H     2.654000000    -1.364000000    -5.326000000
H     1.622000000    -0.365000000    -4.851000000
O     2.756000000     1.156000000    -7.426000000
H     2.194000000     0.635000000    -6.852000000
H     3.544000000     0.624000000    -7.537000000
O     9.005000000     0.072000000    -2.205000000
H     9.409000000    -0.657000000    -2.676000000
H     8.203000000     0.257000000    -2.693000000
