218
-1459.39161
C     3.686000000    -1.839000000     2.715000000
H     3.028000000    -2.682000000     2.908000000
C     3.382000000    -0.564000000     3.259000000
C     4.331000000     0.437000000     2.977000000
H     4.139000000     1.458000000     3.297000000
C     2.020000000    -0.299000000     3.843000000
O     1.565000000    -1.388000000     4.670000000
H     1.374000000    -0.166000000     2.962000000
O     2.066000000     0.995000000     4.565000000
C     1.043000000     1.826000000     4.242000000
C     1.275000000     2.869000000     3.332000000
H     2.288000000     2.987000000     2.955000000
C     0.201000000     3.700000000     2.897000000
O     0.589000000     4.578000000     1.928000000
C    -1.087000000     3.408000000     3.334000000
C    -2.359000000     4.195000000     2.900000000
H    -3.146000000     4.242000000     3.655000000
C    -2.791000000     3.582000000     1.536000000
C    -3.794000000     2.613000000     1.449000000
H    -4.294000000     2.321000000     2.369000000
H    -2.052000000     5.242000000     2.861000000
C    -1.283000000     2.415000000     4.320000000
H    -2.287000000     2.229000000     4.692000000
C    -0.215000000     1.589000000     4.750000000
C    -0.510000000     0.399000000     5.687000000
H    -1.366000000     0.773000000     6.252000000
H     0.296000000     0.134000000     6.376000000
C    -0.855000000    -0.829000000     4.944000000
C    -2.129000000    -1.156000000     4.510000000
H    -2.944000000    -0.552000000     4.901000000
C     0.203000000    -1.789000000     4.536000000
C    -0.080000000    -2.936000000     3.758000000
H     0.777000000    -3.520000000     3.432000000
C    -1.389000000    -3.241000000     3.417000000
O    -1.496000000    -4.279000000     2.484000000
C    -1.684000000    -4.001000000     1.103000000
C    -0.867000000    -4.841000000     0.224000000
C    -1.307000000    -5.133000000    -1.041000000
H    -2.336000000    -4.943000000    -1.336000000
C     0.362000000    -5.392000000     0.622000000
H     0.693000000    -5.361000000     1.657000000
O    -3.113000000    -4.061000000     0.859000000
H    -1.264000000    -2.989000000     1.010000000
C    -2.421000000    -2.318000000     3.796000000
C    -3.850000000    -2.622000000     3.343000000
H    -4.608000000    -2.305000000     4.063000000
H    -3.904000000    -3.712000000     3.368000000
C    -4.206000000    -2.195000000     1.896000000
C    -4.757000000    -0.854000000     1.754000000
H    -5.031000000    -0.312000000     2.656000000
C    -3.859000000    -2.883000000     0.741000000
C    -3.871000000    -2.225000000    -0.505000000
H    -3.456000000    -2.658000000    -1.411000000
C    -4.433000000    -0.956000000    -0.687000000
O    -4.321000000    -0.392000000    -1.883000000
C    -3.388000000     0.648000000    -2.222000000
C    -2.696000000     0.414000000    -3.517000000
C    -2.529000000    -0.840000000    -4.058000000
H    -3.068000000    -1.659000000    -3.589000000
C    -1.947000000     1.463000000    -4.146000000
H    -1.869000000     2.431000000    -3.659000000
O    -4.024000000     1.941000000    -2.094000000
H    -2.591000000     0.658000000    -1.464000000
C    -4.872000000    -0.231000000     0.503000000
C    -5.510000000     1.171000000     0.353000000
H    -6.187000000     1.345000000     1.193000000
H    -5.989000000     1.255000000    -0.624000000
C    -4.310000000     2.099000000     0.268000000
C    -3.806000000     2.632000000    -0.887000000
C    -2.744000000     3.533000000    -0.857000000
H    -2.295000000     3.898000000    -1.777000000
C    -2.270000000     4.038000000     0.318000000
O    -1.188000000     4.860000000     0.288000000
C     0.129000000     4.341000000     0.539000000
H     0.054000000     3.262000000     0.339000000
C     1.111000000     4.830000000    -0.457000000
C     2.443000000     4.371000000    -0.320000000
H     2.666000000     3.701000000     0.507000000
C     0.633000000     5.535000000    -1.611000000
H    -0.334000000     6.015000000    -1.738000000
C     1.585000000     5.714000000    -2.611000000
O     1.239000000     6.199000000    -3.833000000
C     2.814000000     5.192000000    -2.542000000
H     3.449000000     5.159000000    -3.424000000
C     3.261000000     4.605000000    -1.407000000
O     4.593000000     4.241000000    -1.387000000
C     5.370000000     3.986000000    -0.294000000
C     5.304000000     2.743000000     0.393000000
H     4.806000000     1.891000000    -0.062000000
C     6.023000000     5.065000000     0.339000000
H     5.809000000     6.020000000    -0.135000000
C     6.681000000     4.918000000     1.546000000
H     7.128000000     5.799000000     1.999000000
C     6.735000000     3.672000000     2.115000000
H     7.375000000     3.543000000     2.985000000
C     6.047000000     2.543000000     1.613000000
O     6.446000000     1.278000000     2.029000000
C     5.569000000     0.216000000     2.348000000
C     5.832000000    -1.024000000     1.780000000
H     6.800000000    -1.098000000     1.292000000
C     4.931000000    -2.071000000     2.020000000
O     5.223000000    -3.321000000     1.387000000
C     4.590000000    -4.523000000     1.703000000
C     3.622000000    -5.028000000     0.832000000
H     3.278000000    -4.534000000    -0.073000000
C     5.163000000    -5.224000000     2.684000000
H     6.072000000    -4.875000000     3.166000000
C     4.690000000    -6.473000000     2.979000000
H     4.963000000    -7.080000000     3.839000000
C     3.569000000    -6.941000000     2.251000000
H     3.077000000    -7.888000000     2.457000000
C     3.076000000    -6.245000000     1.174000000
O     2.137000000    -6.833000000     0.390000000
C     1.154000000    -6.139000000    -0.264000000
C     0.743000000    -6.441000000    -1.554000000
H     1.415000000    -6.936000000    -2.250000000
C    -0.486000000    -5.874000000    -1.889000000
O    -1.047000000    -6.208000000    -3.088000000
C    -1.868000000    -5.388000000    -3.890000000
C    -1.435000000    -4.177000000    -4.397000000
H    -0.471000000    -3.780000000    -4.088000000
C    -3.054000000    -5.932000000    -4.385000000
H    -3.372000000    -6.895000000    -3.992000000
C    -3.728000000    -5.225000000    -5.358000000
H    -4.674000000    -5.587000000    -5.753000000
C    -3.327000000    -3.963000000    -5.793000000
H    -3.902000000    -3.337000000    -6.470000000
C    -2.204000000    -3.400000000    -5.265000000
O    -1.732000000    -2.239000000    -5.772000000
C    -1.766000000    -1.005000000    -5.180000000
C    -1.156000000     0.032000000    -5.849000000
H    -0.523000000    -0.140000000    -6.716000000
C    -1.281000000     1.289000000    -5.318000000
O    -0.616000000     2.287000000    -6.004000000
C    -0.720000000     3.608000000    -5.607000000
C    -1.751000000     4.386000000    -6.115000000
H    -2.436000000     3.814000000    -6.735000000
C    -1.735000000     5.743000000    -5.921000000
H    -2.508000000     6.352000000    -6.383000000
C    -0.800000000     6.383000000    -5.095000000
H    -0.945000000     7.411000000    -4.773000000
C     0.200000000     5.596000000    -4.493000000
C     0.236000000     4.216000000    -4.820000000
H     1.122000000     3.678000000    -4.495000000
C     0.552000000    -0.494000000    -2.394000000
H     0.363000000    -0.975000000    -3.350000000
C    -0.213000000    -0.780000000    -1.271000000
H    -1.033000000    -1.492000000    -1.281000000
C     0.128000000    -0.126000000    -0.074000000
C    -0.719000000    -0.281000000     1.176000000
H    -0.621000000     0.579000000     1.841000000
H    -1.754000000    -0.521000000     0.924000000
H    -0.300000000    -1.078000000     1.793000000
C     1.318000000     0.539000000     0.049000000
H     1.606000000     0.972000000     1.003000000
C     2.101000000     0.848000000    -1.057000000
H     3.012000000     1.435000000    -0.970000000
C     1.696000000     0.271000000    -2.302000000
C     2.570000000     0.328000000    -3.503000000
O     3.629000000     0.857000000    -3.469000000
O     2.131000000    -0.112000000    -4.558000000
O     2.306000000     1.797000000    -6.323000000
H     2.319000000     1.082000000    -5.687000000
H     1.386000000     2.058000000    -6.370000000
O     6.047000000    -0.418000000    -9.490000000
H     6.929000000    -0.480000000    -9.857000000
H     6.162000000     0.059000000    -8.668000000
O     4.411000000    -3.510000000    -4.841000000
H     4.937000000    -2.846000000    -5.287000000
H     5.013000000    -4.243000000    -4.709000000
O     1.854000000    -2.535000000    -4.833000000
H     2.009000000    -1.597000000    -4.726000000
H     2.707000000    -2.939000000    -4.674000000
O     2.638000000    -1.787000000    -7.725000000
H     3.549000000    -1.652000000    -7.464000000
H     2.258000000    -2.298000000    -7.011000000
O     0.528000000    -4.311000000    -7.433000000
H     0.162000000    -5.195000000    -7.405000000
H     0.271000000    -3.919000000    -6.598000000
O     4.343000000     3.235000000    -4.794000000
H     3.865000000     2.903000000    -5.554000000
H     3.902000000     2.840000000    -4.042000000
O     4.146000000     3.159000000    -8.215000000
H     3.618000000     2.977000000    -8.992000000
H     3.804000000     3.989000000    -7.881000000
O     1.460000000     0.122000000    -9.028000000
H     1.655000000     0.995000000    -8.687000000
H     1.798000000    -0.476000000    -8.361000000
O     5.654000000    -3.697000000    -1.974000000
H     4.786000000    -3.340000000    -2.159000000
H     6.215000000    -3.333000000    -2.659000000
O     7.996000000    -1.239000000    -5.170000000
H     8.529000000    -0.476000000    -5.394000000
H     7.126000000    -0.879000000    -4.993000000
O     5.602000000     0.919000000    -7.152000000
H     4.801000000     1.333000000    -7.473000000
H     5.599000000     1.091000000    -6.210000000
O     5.995000000     0.454000000    -4.490000000
H     5.067000000     0.592000000    -4.297000000
H     6.448000000     1.120000000    -3.974000000
O     9.004000000     1.422000000    -3.862000000
H     8.545000000     2.262000000    -3.868000000
H     8.643000000     0.957000000    -3.107000000
O     5.396000000    -1.843000000    -6.686000000
H     6.106000000    -2.092000000    -7.278000000
H     5.587000000    -0.935000000    -6.452000000
O     5.544000000     0.212000000    -1.700000000
H     4.995000000     0.391000000    -2.463000000
H     4.933000000    -0.099000000    -1.032000000
O     8.122000000     0.911000000    -1.113000000
H     7.175000000     0.861000000    -0.978000000
H     8.424000000     0.007000000    -1.027000000
O     2.933000000    -5.128000000    -7.557000000
H     3.080000000    -4.936000000    -6.631000000
H     2.009000000    -4.926000000    -7.700000000
O     6.928000000     3.261000000    -4.022000000
H     6.013000000     3.406000000    -4.264000000
H     7.163000000     4.030000000    -3.503000000
