218
-1472.72180
C     3.577000000    -1.101000000     3.111000000
H     2.897000000    -1.939000000     2.982000000
C     3.004000000     0.024000000     3.705000000
C     3.794000000     1.196000000     3.890000000
H     3.408000000     2.049000000     4.442000000
C     1.521000000     0.072000000     4.116000000
O     1.167000000    -1.141000000     4.881000000
H     0.890000000     0.009000000     3.217000000
O     1.224000000     1.242000000     4.888000000
C     0.067000000     1.895000000     4.432000000
C     0.351000000     2.904000000     3.545000000
H     1.394000000     3.063000000     3.285000000
C    -0.676000000     3.544000000     2.858000000
O    -0.344000000     4.310000000     1.786000000
C    -2.019000000     3.095000000     3.052000000
C    -3.203000000     3.761000000     2.429000000
H    -4.103000000     3.829000000     3.044000000
C    -3.575000000     3.080000000     1.112000000
C    -4.561000000     2.165000000     0.993000000
H    -5.087000000     1.839000000     1.886000000
H    -3.056000000     4.839000000     2.338000000
C    -2.268000000     2.089000000     4.042000000
H    -3.262000000     1.760000000     4.336000000
C    -1.218000000     1.426000000     4.688000000
C    -1.451000000     0.290000000     5.591000000
H    -2.501000000     0.395000000     5.872000000
H    -0.844000000     0.343000000     6.497000000
C    -1.306000000    -0.986000000     4.795000000
C    -2.410000000    -1.403000000     4.097000000
H    -3.374000000    -0.908000000     4.180000000
C    -0.093000000    -1.614000000     4.469000000
C     0.016000000    -2.680000000     3.575000000
H     0.982000000    -3.140000000     3.383000000
C    -1.181000000    -3.142000000     2.986000000
O    -1.045000000    -4.105000000     2.058000000
C    -1.192000000    -3.788000000     0.656000000
C    -0.064000000    -4.506000000    -0.158000000
C    -0.137000000    -4.605000000    -1.532000000
H    -1.014000000    -4.295000000    -2.093000000
C     1.169000000    -4.869000000     0.461000000
H     1.336000000    -4.813000000     1.533000000
O    -2.492000000    -4.158000000     0.214000000
H    -0.980000000    -2.739000000     0.400000000
C    -2.340000000    -2.472000000     3.236000000
C    -3.701000000    -2.981000000     2.670000000
H    -4.484000000    -2.554000000     3.300000000
H    -3.720000000    -4.069000000     2.761000000
C    -3.948000000    -2.527000000     1.235000000
C    -4.779000000    -1.405000000     1.093000000
H    -5.175000000    -0.894000000     1.966000000
C    -3.454000000    -3.168000000     0.066000000
C    -3.729000000    -2.619000000    -1.186000000
H    -3.357000000    -3.151000000    -2.058000000
C    -4.519000000    -1.525000000    -1.283000000
O    -4.438000000    -0.888000000    -2.496000000
C    -3.313000000    -0.027000000    -2.678000000
C    -2.414000000    -0.135000000    -3.898000000
C    -2.521000000    -1.270000000    -4.742000000
H    -3.297000000    -2.020000000    -4.613000000
C    -1.471000000     0.841000000    -4.286000000
H    -1.287000000     1.756000000    -3.729000000
O    -3.964000000     1.228000000    -2.591000000
H    -2.624000000    -0.158000000    -1.830000000
C    -5.032000000    -0.879000000    -0.169000000
C    -5.763000000     0.429000000    -0.255000000
H    -6.508000000     0.670000000     0.506000000
H    -6.274000000     0.533000000    -1.215000000
C    -4.751000000     1.514000000    -0.274000000
C    -3.952000000     1.924000000    -1.368000000
C    -3.016000000     2.942000000    -1.253000000
H    -2.368000000     3.270000000    -2.062000000
C    -2.854000000     3.543000000    -0.018000000
O    -1.850000000     4.476000000    -0.001000000
C    -0.498000000     3.939000000     0.417000000
H    -0.590000000     2.843000000     0.413000000
C     0.679000000     4.417000000    -0.415000000
C     1.987000000     4.211000000     0.063000000
H     2.108000000     3.628000000     0.973000000
C     0.474000000     5.100000000    -1.561000000
H    -0.523000000     5.360000000    -1.908000000
C     1.521000000     5.494000000    -2.363000000
O     1.309000000     5.856000000    -3.639000000
C     2.825000000     5.347000000    -1.853000000
H     3.719000000     5.577000000    -2.427000000
C     3.079000000     4.678000000    -0.675000000
O     4.397000000     4.414000000    -0.341000000
C     4.791000000     4.450000000     0.942000000
C     5.239000000     3.317000000     1.563000000
H     5.430000000     2.441000000     0.949000000
C     4.799000000     5.653000000     1.617000000
H     4.412000000     6.505000000     1.065000000
C     5.062000000     5.724000000     2.993000000
H     5.055000000     6.710000000     3.449000000
C     5.451000000     4.527000000     3.628000000
H     5.699000000     4.656000000     4.678000000
C     5.510000000     3.361000000     2.916000000
O     5.868000000     2.246000000     3.583000000
C     5.068000000     1.170000000     3.436000000
C     5.604000000     0.098000000     2.730000000
H     6.579000000     0.169000000     2.255000000
C     4.830000000    -0.994000000     2.507000000
O     5.234000000    -2.059000000     1.688000000
C     4.880000000    -3.311000000     1.998000000
C     4.219000000    -4.021000000     1.040000000
H     4.039000000    -3.533000000     0.086000000
C     5.237000000    -3.927000000     3.192000000
H     5.998000000    -3.510000000     3.847000000
C     4.834000000    -5.235000000     3.378000000
H     5.082000000    -5.731000000     4.312000000
C     4.087000000    -5.969000000     2.476000000
H     3.655000000    -6.965000000     2.528000000
C     3.931000000    -5.367000000     1.240000000
O     3.199000000    -6.110000000     0.298000000
C     2.095000000    -5.563000000    -0.289000000
C     2.047000000    -5.515000000    -1.694000000
H     2.876000000    -5.987000000    -2.214000000
C     0.918000000    -5.118000000    -2.304000000
O     0.902000000    -5.254000000    -3.648000000
C    -0.165000000    -5.221000000    -4.411000000
C    -0.441000000    -4.024000000    -4.978000000
H     0.207000000    -3.176000000    -4.773000000
C    -0.968000000    -6.314000000    -4.595000000
H    -0.758000000    -7.232000000    -4.052000000
C    -2.171000000    -6.192000000    -5.287000000
H    -2.929000000    -6.969000000    -5.349000000
C    -2.432000000    -4.989000000    -5.897000000
H    -3.330000000    -4.966000000    -6.508000000
C    -1.546000000    -3.899000000    -5.842000000
O    -1.776000000    -2.688000000    -6.475000000
C    -1.747000000    -1.433000000    -5.813000000
C    -0.821000000    -0.448000000    -6.239000000
H    -0.277000000    -0.543000000    -7.176000000
C    -0.686000000     0.664000000    -5.412000000
O     0.218000000     1.699000000    -5.796000000
C    -0.085000000     2.993000000    -5.422000000
C    -1.230000000     3.534000000    -6.007000000
H    -1.835000000     2.990000000    -6.727000000
C    -1.542000000     4.839000000    -5.792000000
H    -2.415000000     5.309000000    -6.236000000
C    -0.727000000     5.688000000    -4.992000000
H    -0.954000000     6.744000000    -4.865000000
C     0.390000000     5.120000000    -4.373000000
C     0.755000000     3.779000000    -4.625000000
H     1.650000000     3.330000000    -4.201000000
C     1.551000000    -0.955000000    -1.822000000
H     1.733000000    -1.544000000    -2.717000000
C     0.331000000    -0.929000000    -1.056000000
H    -0.553000000    -1.435000000    -1.436000000
C     0.237000000    -0.129000000     0.082000000
C    -1.081000000     0.157000000     0.731000000
H    -1.686000000    -0.749000000     0.806000000
H    -0.910000000     0.569000000     1.728000000
H    -1.742000000     0.817000000     0.166000000
C     1.358000000     0.606000000     0.473000000
H     1.276000000     1.321000000     1.287000000
C     2.541000000     0.498000000    -0.234000000
H     3.413000000     0.990000000     0.189000000
C     2.684000000    -0.264000000    -1.428000000
C     4.050000000    -0.394000000    -2.106000000
O     5.059000000     0.241000000    -1.837000000
O     4.086000000    -1.183000000    -3.049000000
O     2.606000000     0.743000000    -6.583000000
H     1.802000000     1.006000000    -6.136000000
H     2.830000000    -0.103000000    -6.194000000
O     4.683000000    -3.721000000    -3.055000000
H     4.341000000    -2.828000000    -3.098000000
H     4.283000000    -4.166000000    -3.802000000
O     6.388000000     1.173000000    -5.877000000
H     6.446000000     0.477000000    -5.223000000
H     5.683000000     0.895000000    -6.461000000
O     5.880000000    -2.013000000    -7.265000000
H     6.582000000    -1.493000000    -7.654000000
H     6.303000000    -2.496000000    -6.555000000
O     3.833000000    -4.390000000    -5.490000000
H     4.034000000    -5.291000000    -5.239000000
H     3.335000000    -4.474000000    -6.303000000
O     6.290000000     2.327000000    -2.747000000
H     7.117000000     1.857000000    -2.647000000
H     5.667000000     1.832000000    -2.214000000
O     8.888000000     2.294000000     0.503000000
H     8.041000000     2.473000000     0.095000000
H     9.513000000     2.813000000    -0.004000000
O     8.210000000    -4.256000000     0.370000000
H     9.144000000    -4.061000000     0.298000000
H     7.876000000    -3.604000000     0.986000000
O     7.075000000    -3.488000000    -4.890000000
H     6.263000000    -3.987000000    -4.796000000
H     7.339000000    -3.289000000    -3.992000000
O     8.675000000     1.793000000    -4.080000000
H     9.021000000     2.663000000    -4.279000000
H     8.105000000     1.586000000    -4.820000000
O     6.540000000    -0.598000000    -4.021000000
H     6.235000000    -1.496000000    -4.148000000
H     6.140000000    -0.323000000    -3.196000000
O     8.186000000    -1.702000000     1.795000000
H     7.630000000    -1.397000000     1.078000000
H     8.727000000    -0.945000000     2.018000000
O     6.987000000    -0.999000000    -0.488000000
H     6.337000000    -0.418000000    -0.885000000
H     7.103000000    -1.701000000    -1.128000000
O     6.721000000    -5.323000000    -1.859000000
H     7.036000000    -4.836000000    -1.097000000
H     5.975000000    -4.814000000    -2.177000000
O     4.653000000     3.445000000    -4.680000000
H     5.085000000     2.835000000    -4.082000000
H     4.374000000     2.902000000    -5.417000000
O     8.003000000    -2.632000000    -2.464000000
H     8.628000000    -3.346000000    -2.338000000
H     8.543000000    -1.884000000    -2.719000000
O     9.663000000    -0.869000000    -3.227000000
H    10.441000000    -0.685000000    -2.701000000
H     9.291000000    -0.007000000    -3.412000000
O     2.907000000    -1.725000000    -5.313000000
H     3.206000000    -1.303000000    -4.508000000
H     3.381000000    -2.557000000    -5.337000000
O     6.544000000     5.360000000    -3.194000000
H     6.777000000     5.165000000    -4.101000000
H     6.118000000     4.563000000    -2.879000000
