218
-1438.36231
C     3.185000000    -3.979000000     2.539000000
H     2.568000000    -4.785000000     2.147000000
C     2.553000000    -2.844000000     2.979000000
C     3.278000000    -1.648000000     3.100000000
H     2.658000000    -0.796000000     3.366000000
C     1.071000000    -2.791000000     3.086000000
O     0.441000000    -4.063000000     2.875000000
H     0.653000000    -2.113000000     2.328000000
O     0.762000000    -2.189000000     4.326000000
C    -0.347000000    -1.391000000     4.359000000
C    -0.087000000    -0.039000000     4.499000000
H     0.887000000     0.327000000     4.814000000
C    -1.127000000     0.870000000     4.289000000
O    -0.830000000     2.222000000     4.563000000
C    -2.412000000     0.436000000     4.071000000
C    -3.526000000     1.455000000     3.917000000
H    -4.492000000     1.024000000     4.187000000
C    -3.686000000     1.937000000     2.520000000
C    -4.564000000     1.296000000     1.640000000
H    -5.144000000     0.487000000     2.077000000
H    -3.560000000     2.220000000     4.695000000
C    -2.676000000    -0.892000000     3.974000000
H    -3.697000000    -1.184000000     3.744000000
C    -1.641000000    -1.796000000     4.128000000
C    -2.119000000    -3.230000000     3.890000000
H    -3.144000000    -3.255000000     4.265000000
H    -1.563000000    -3.846000000     4.600000000
C    -1.928000000    -3.655000000     2.432000000
C    -2.988000000    -3.582000000     1.534000000
H    -3.871000000    -3.033000000     1.851000000
C    -0.674000000    -4.113000000     2.004000000
C    -0.562000000    -4.568000000     0.718000000
H     0.383000000    -4.855000000     0.263000000
C    -1.639000000    -4.433000000    -0.157000000
O    -1.354000000    -4.575000000    -1.462000000
C    -1.170000000    -3.366000000    -2.321000000
C     0.019000000    -3.553000000    -3.238000000
C    -0.040000000    -3.191000000    -4.585000000
H    -1.012000000    -2.955000000    -5.011000000
C     1.224000000    -4.117000000    -2.741000000
H     1.305000000    -4.630000000    -1.786000000
O    -2.366000000    -3.114000000    -3.026000000
H    -0.990000000    -2.466000000    -1.714000000
C    -2.942000000    -4.012000000     0.227000000
C    -4.085000000    -3.770000000    -0.666000000
H    -4.968000000    -3.815000000    -0.026000000
H    -4.104000000    -4.539000000    -1.442000000
C    -4.112000000    -2.442000000    -1.407000000
C    -4.771000000    -1.364000000    -0.788000000
H    -5.221000000    -1.526000000     0.189000000
C    -3.290000000    -2.209000000    -2.467000000
C    -3.353000000    -0.952000000    -3.144000000
H    -2.708000000    -0.804000000    -4.007000000
C    -4.039000000     0.079000000    -2.570000000
O    -3.829000000     1.338000000    -3.083000000
C    -2.919000000     2.232000000    -2.373000000
C    -2.050000000     2.986000000    -3.358000000
C    -1.222000000     2.282000000    -4.249000000
H    -1.399000000     1.220000000    -4.396000000
C    -1.774000000     4.333000000    -3.077000000
H    -2.276000000     4.882000000    -2.285000000
O    -3.640000000     3.106000000    -1.404000000
H    -2.173000000     1.603000000    -1.865000000
C    -4.701000000    -0.111000000    -1.363000000
C    -5.434000000     1.029000000    -0.722000000
H    -6.385000000     0.746000000    -0.266000000
H    -5.697000000     1.655000000    -1.577000000
C    -4.611000000     1.773000000     0.329000000
C    -3.675000000     2.728000000    -0.111000000
C    -2.757000000     3.291000000     0.759000000
H    -2.059000000     4.088000000     0.516000000
C    -2.838000000     2.948000000     2.108000000
O    -2.030000000     3.528000000     3.006000000
C    -0.742000000     2.988000000     3.337000000
H    -0.430000000     2.289000000     2.546000000
C     0.422000000     3.945000000     3.321000000
C     1.574000000     3.591000000     4.060000000
H     1.525000000     2.763000000     4.762000000
C     0.496000000     4.894000000     2.354000000
H    -0.450000000     5.057000000     1.846000000
C     1.640000000     5.533000000     2.045000000
O     1.756000000     6.440000000     0.979000000
C     2.829000000     5.189000000     2.736000000
H     3.780000000     5.682000000     2.552000000
C     2.773000000     4.221000000     3.715000000
O     3.930000000     3.867000000     4.393000000
C     4.384000000     2.654000000     4.694000000
C     4.643000000     1.726000000     3.674000000
H     4.371000000     1.919000000     2.640000000
C     4.635000000     2.363000000     5.987000000
H     4.394000000     3.123000000     6.726000000
C     5.229000000     1.102000000     6.296000000
H     5.500000000     0.817000000     7.309000000
C     5.390000000     0.138000000     5.299000000
H     5.783000000    -0.854000000     5.508000000
C     5.141000000     0.440000000     3.984000000
O     5.485000000    -0.523000000     3.022000000
C     4.682000000    -1.643000000     2.905000000
C     5.294000000    -2.793000000     2.449000000
H     6.333000000    -2.779000000     2.130000000
C     4.556000000    -3.912000000     2.187000000
O     5.178000000    -4.856000000     1.451000000
C     4.480000000    -5.411000000     0.373000000
C     4.365000000    -4.627000000    -0.795000000
H     4.722000000    -3.604000000    -0.882000000
C     4.119000000    -6.736000000     0.487000000
H     4.413000000    -7.236000000     1.406000000
C     3.551000000    -7.332000000    -0.617000000
H     3.240000000    -8.366000000    -0.493000000
C     3.308000000    -6.530000000    -1.791000000
H     2.964000000    -6.999000000    -2.709000000
C     3.739000000    -5.195000000    -1.875000000
O     3.560000000    -4.568000000    -3.099000000
C     2.372000000    -4.022000000    -3.510000000
C     2.295000000    -3.523000000    -4.786000000
H     3.208000000    -3.431000000    -5.369000000
C     1.103000000    -3.024000000    -5.354000000
O     1.036000000    -2.437000000    -6.608000000
C     0.609000000    -1.204000000    -6.951000000
C     0.890000000    -0.093000000    -6.198000000
H     1.577000000    -0.165000000    -5.359000000
C    -0.051000000    -1.089000000    -8.116000000
H    -0.080000000    -1.921000000    -8.814000000
C    -0.637000000     0.138000000    -8.540000000
H    -1.233000000     0.149000000    -9.449000000
C    -0.489000000     1.229000000    -7.673000000
H    -1.124000000     2.092000000    -7.857000000
C     0.408000000     1.170000000    -6.548000000
O     0.718000000     2.232000000    -5.711000000
C    -0.221000000     2.951000000    -5.005000000
C    -0.006000000     4.352000000    -4.757000000
H     0.729000000     4.866000000    -5.371000000
C    -0.743000000     4.996000000    -3.779000000
O    -0.367000000     6.262000000    -3.427000000
C    -0.308000000     6.742000000    -2.052000000
C    -1.383000000     7.422000000    -1.474000000
H    -2.324000000     7.629000000    -1.978000000
C    -1.397000000     7.807000000    -0.155000000
H    -2.277000000     8.286000000     0.266000000
C    -0.300000000     7.486000000     0.613000000
H    -0.233000000     7.810000000     1.648000000
C     0.696000000     6.715000000     0.113000000
C     0.726000000     6.389000000    -1.224000000
H     1.542000000     5.820000000    -1.661000000
C     1.809000000     0.405000000    -1.967000000
H     1.935000000     0.428000000    -3.046000000
C     0.538000000     0.189000000    -1.432000000
H    -0.269000000     0.203000000    -2.161000000
C     0.294000000     0.291000000    -0.065000000
C    -1.032000000    -0.026000000     0.577000000
H    -1.697000000    -0.431000000    -0.188000000
H    -0.896000000    -0.737000000     1.395000000
H    -1.351000000     0.903000000     1.053000000
C     1.417000000     0.492000000     0.740000000
H     1.275000000     0.565000000     1.815000000
C     2.687000000     0.445000000     0.275000000
H     3.558000000     0.601000000     0.905000000
C     2.905000000     0.345000000    -1.108000000
C     4.313000000     0.455000000    -1.583000000
O     5.238000000     0.114000000    -0.827000000
O     4.615000000     0.982000000    -2.579000000
O     4.274000000     5.575000000    -0.845000000
H     3.456000000     5.888000000    -0.457000000
H     4.044000000     4.736000000    -1.244000000
O     5.649000000     4.175000000    -6.320000000
H     6.206000000     4.335000000    -5.559000000
H     5.339000000     3.276000000    -6.206000000
O     6.810000000     1.613000000    -6.680000000
H     6.088000000     1.036000000    -6.931000000
H     7.046000000     1.330000000    -5.796000000
O     7.918000000     3.376000000     2.840000000
H     8.833000000     3.482000000     2.580000000
H     7.507000000     2.938000000     2.094000000
O     6.410000000     5.743000000     2.591000000
H     6.539000000     4.804000000     2.460000000
H     7.265000000     6.063000000     2.879000000
O     6.910000000    -2.358000000    -4.386000000
H     6.777000000    -1.883000000    -5.206000000
H     6.915000000    -3.281000000    -4.641000000
O     3.206000000     3.359000000    -2.647000000
H     3.589000000     3.631000000    -3.481000000
H     3.590000000     2.499000000    -2.476000000
O     7.292000000     0.588000000    -3.793000000
H     7.216000000    -0.337000000    -4.029000000
H     6.417000000     0.830000000    -3.489000000
O     8.559000000    -0.089000000     2.669000000
H     8.045000000     0.502000000     2.118000000
H     8.224000000     0.056000000     3.553000000
O     6.471000000     1.339000000     1.194000000
H     6.038000000     0.934000000     0.442000000
H     6.197000000     0.807000000     1.942000000
O     7.733000000     5.776000000    -0.122000000
H     7.797000000     4.862000000    -0.397000000
H     6.909000000     5.824000000     0.362000000
O     7.553000000     3.196000000    -0.936000000
H     7.082000000     2.505000000    -0.470000000
H     7.327000000     3.062000000    -1.856000000
O     6.715000000    -2.115000000    -0.599000000
H     6.117000000    -1.377000000    -0.479000000
H     6.585000000    -2.383000000    -1.509000000
O     8.640000000    -2.584000000     1.298000000
H     7.869000000    -2.608000000     0.732000000
H     8.792000000    -1.653000000     1.458000000
O     3.686000000     0.378000000    -6.901000000
H     3.318000000     1.073000000    -7.447000000
H     3.638000000    -0.407000000    -7.448000000
O    11.235000000    -1.667000000    -2.245000000
H    11.009000000    -1.631000000    -3.174000000
H    10.555000000    -1.150000000    -1.812000000
O     9.848000000    -2.618000000    -4.386000000
H     8.966000000    -2.575000000    -4.755000000
H    10.331000000    -1.927000000    -4.840000000
O     8.859000000    -0.667000000    -1.478000000
H     8.553000000    -0.175000000    -2.239000000
H     8.074000000    -1.099000000    -1.141000000
O     4.292000000     2.118000000    -4.957000000
H     4.524000000     1.677000000    -4.140000000
H     3.948000000     1.421000000    -5.516000000
