218
-1470.75423
C     3.370000000    -2.349000000     2.327000000
H     3.225000000    -2.650000000     1.292000000
C     2.364000000    -2.515000000     3.255000000
C     2.583000000    -1.978000000     4.532000000
H     1.785000000    -2.039000000     5.269000000
C     1.012000000    -3.003000000     2.748000000
O     1.212000000    -4.235000000     2.022000000
H     0.618000000    -2.208000000     2.097000000
O     0.091000000    -3.153000000     3.803000000
C    -1.200000000    -2.777000000     3.575000000
C    -1.626000000    -1.653000000     4.203000000
H    -0.912000000    -1.189000000     4.879000000
C    -2.776000000    -0.999000000     3.834000000
O    -2.905000000     0.314000000     4.204000000
C    -3.631000000    -1.628000000     2.954000000
C    -4.978000000    -0.953000000     2.585000000
H    -5.635000000    -1.800000000     2.377000000
C    -4.723000000    -0.146000000     1.287000000
C    -4.877000000    -0.763000000     0.098000000
H    -5.418000000    -1.700000000    -0.005000000
H    -5.356000000    -0.376000000     3.431000000
C    -3.270000000    -2.846000000     2.327000000
H    -3.873000000    -3.294000000     1.541000000
C    -2.103000000    -3.513000000     2.739000000
C    -1.727000000    -4.811000000     2.068000000
H    -2.609000000    -5.445000000     1.961000000
H    -1.194000000    -5.400000000     2.817000000
C    -0.911000000    -4.628000000     0.803000000
C    -1.470000000    -4.771000000    -0.438000000
H    -2.532000000    -5.001000000    -0.422000000
C     0.507000000    -4.401000000     0.866000000
C     1.211000000    -4.268000000    -0.324000000
H     2.287000000    -4.113000000    -0.307000000
C     0.600000000    -4.323000000    -1.613000000
O     1.305000000    -4.030000000    -2.773000000
C     1.096000000    -2.751000000    -3.388000000
C     2.353000000    -2.270000000    -3.946000000
C     2.351000000    -1.427000000    -5.044000000
H     1.443000000    -1.095000000    -5.541000000
C     3.565000000    -2.488000000    -3.269000000
H     3.545000000    -3.110000000    -2.378000000
O    -0.006000000    -2.814000000    -4.448000000
H     0.703000000    -2.049000000    -2.637000000
C    -0.762000000    -4.655000000    -1.645000000
C    -1.663000000    -4.659000000    -2.829000000
H    -2.627000000    -5.107000000    -2.582000000
H    -1.254000000    -5.226000000    -3.668000000
C    -2.091000000    -3.247000000    -3.276000000
C    -3.316000000    -2.677000000    -2.778000000
H    -3.857000000    -3.280000000    -2.053000000
C    -1.266000000    -2.542000000    -4.134000000
C    -1.661000000    -1.238000000    -4.478000000
H    -1.067000000    -0.578000000    -5.105000000
C    -2.704000000    -0.614000000    -3.859000000
O    -2.865000000     0.753000000    -3.986000000
C    -2.600000000     1.592000000    -2.893000000
C    -1.811000000     2.902000000    -3.039000000
C    -0.673000000     2.956000000    -3.895000000
H    -0.442000000     2.047000000    -4.445000000
C    -2.121000000     4.119000000    -2.357000000
H    -2.882000000     4.120000000    -1.581000000
O    -3.914000000     1.909000000    -2.188000000
H    -2.041000000     0.879000000    -2.269000000
C    -3.554000000    -1.341000000    -3.059000000
C    -4.813000000    -0.700000000    -2.562000000
H    -5.612000000    -1.423000000    -2.386000000
H    -5.194000000     0.073000000    -3.233000000
C    -4.650000000    -0.082000000    -1.122000000
C    -4.243000000     1.235000000    -1.028000000
C    -3.969000000     1.856000000     0.135000000
H    -3.586000000     2.869000000     0.226000000
C    -4.214000000     1.178000000     1.325000000
O    -3.693000000     1.779000000     2.501000000
C    -2.494000000     1.278000000     3.202000000
H    -1.819000000     0.805000000     2.473000000
C    -1.628000000     2.416000000     3.752000000
C    -0.867000000     2.291000000     4.914000000
H    -1.008000000     1.400000000     5.521000000
C    -1.471000000     3.587000000     2.922000000
H    -1.960000000     3.581000000     1.951000000
C    -0.706000000     4.626000000     3.373000000
O    -0.501000000     5.792000000     2.718000000
C     0.133000000     4.466000000     4.475000000
H     0.823000000     5.244000000     4.794000000
C     0.129000000     3.284000000     5.188000000
O     0.856000000     3.182000000     6.350000000
C     1.374000000     2.006000000     6.802000000
C     2.418000000     1.321000000     6.131000000
H     3.013000000     1.881000000     5.414000000
C     0.830000000     1.434000000     7.902000000
H     0.002000000     1.970000000     8.360000000
C     1.211000000     0.123000000     8.337000000
H     0.759000000    -0.296000000     9.232000000
C     2.127000000    -0.571000000     7.579000000
H     2.439000000    -1.531000000     7.981000000
C     2.786000000    -0.011000000     6.507000000
O     3.888000000    -0.594000000     6.009000000
C     3.752000000    -1.351000000     4.848000000
C     4.732000000    -1.110000000     3.938000000
H     5.617000000    -0.564000000     4.257000000
C     4.577000000    -1.654000000     2.637000000
O     5.438000000    -1.305000000     1.608000000
C     5.684000000    -2.182000000     0.479000000
C     5.682000000    -1.644000000    -0.785000000
H     5.451000000    -0.595000000    -0.954000000
C     5.851000000    -3.558000000     0.697000000
H     5.812000000    -3.880000000     1.735000000
C     6.027000000    -4.500000000    -0.342000000
H     6.055000000    -5.572000000    -0.164000000
C     6.134000000    -3.919000000    -1.617000000
H     6.323000000    -4.590000000    -2.452000000
C     5.938000000    -2.526000000    -1.878000000
O     5.918000000    -1.989000000    -3.160000000
C     4.735000000    -1.831000000    -3.796000000
C     4.715000000    -0.936000000    -4.852000000
H     5.601000000    -0.465000000    -5.269000000
C     3.504000000    -0.787000000    -5.536000000
O     3.279000000     0.032000000    -6.613000000
C     2.445000000     1.055000000    -6.713000000
C     2.266000000     1.901000000    -5.622000000
H     2.669000000     1.612000000    -4.655000000
C     1.860000000     1.363000000    -7.933000000
H     1.908000000     0.653000000    -8.754000000
C     1.261000000     2.652000000    -8.146000000
H     0.903000000     2.971000000    -9.122000000
C     1.139000000     3.497000000    -7.044000000
H     0.751000000     4.483000000    -7.283000000
C     1.490000000     3.076000000    -5.767000000
O     1.345000000     3.967000000    -4.702000000
C     0.216000000     4.015000000    -3.949000000
C    -0.066000000     5.129000000    -3.160000000
H     0.644000000     5.950000000    -3.217000000
C    -1.264000000     5.224000000    -2.463000000
O    -1.683000000     6.408000000    -1.909000000
C    -2.003000000     6.484000000    -0.508000000
C    -3.231000000     7.086000000    -0.183000000
H    -3.906000000     7.445000000    -0.956000000
C    -3.533000000     7.137000000     1.191000000
H    -4.511000000     7.467000000     1.532000000
C    -2.637000000     6.720000000     2.180000000
H    -2.938000000     6.620000000     3.219000000
C    -1.435000000     6.204000000     1.787000000
C    -1.087000000     6.117000000     0.451000000
H    -0.147000000     5.769000000     0.031000000
C     2.568000000     0.699000000    -0.585000000
H     3.130000000     0.723000000    -1.515000000
C     1.163000000     0.350000000    -0.746000000
H     0.809000000     0.154000000    -1.754000000
C     0.452000000     0.143000000     0.401000000
C    -0.888000000    -0.606000000     0.343000000
H    -1.658000000     0.087000000    -0.003000000
H    -0.822000000    -1.462000000    -0.332000000
H    -1.155000000    -1.016000000     1.319000000
C     0.954000000     0.500000000     1.668000000
H     0.359000000     0.408000000     2.573000000
C     2.237000000     0.969000000     1.823000000
H     2.645000000     1.283000000     2.780000000
C     3.069000000     0.959000000     0.724000000
C     4.473000000     1.575000000     0.851000000
O     4.972000000     1.766000000     1.940000000
O     4.961000000     1.939000000    -0.213000000
O     7.774000000     6.713000000     1.543000000
H     6.954000000     6.388000000     1.170000000
H     7.524000000     7.065000000     2.398000000
O     2.172000000     6.526000000     1.158000000
H     2.690000000     6.815000000     0.406000000
H     1.736000000     5.729000000     0.856000000
O     5.153000000     3.416000000    -4.206000000
H     5.693000000     3.591000000    -4.977000000
H     5.578000000     2.671000000    -3.780000000
O     8.457000000     3.525000000     0.926000000
H     8.101000000     4.412000000     0.969000000
H     7.947000000     3.031000000     1.568000000
O     9.494000000     0.143000000     2.691000000
H    10.039000000     0.439000000     3.420000000
H     8.830000000     0.826000000     2.596000000
O     1.407000000     3.916000000     0.442000000
H     1.493000000     3.208000000     1.081000000
H     1.825000000     3.576000000    -0.349000000
O     4.350000000     5.248000000     2.196000000
H     4.227000000     4.744000000     3.000000000
H     3.575000000     5.808000000     2.145000000
O     7.452000000     0.738000000     0.088000000
H     6.569000000     1.088000000     0.202000000
H     8.012000000     1.512000000     0.034000000
O     4.566000000     2.998000000     4.023000000
H     4.568000000     2.536000000     3.184000000
H     5.257000000     2.573000000     4.531000000
O     8.525000000    -2.041000000     1.598000000
H     7.997000000    -1.733000000     0.861000000
H     8.932000000    -1.249000000     1.949000000
O     7.453000000     2.024000000     2.860000000
H     6.684000000     1.560000000     2.529000000
H     7.294000000     2.108000000     3.801000000
O     7.892000000     0.027000000    -4.400000000
H     7.387000000    -0.058000000    -3.591000000
H     7.745000000    -0.798000000    -4.862000000
O     6.031000000     4.549000000     0.241000000
H     5.917000000     3.625000000     0.021000000
H     5.302000000     4.747000000     0.829000000
O     3.476000000     3.919000000    -2.017000000
H     3.885000000     3.882000000    -2.881000000
H     4.022000000     3.355000000    -1.469000000
O     9.672000000    -0.236000000    -1.113000000
H    10.223000000     0.540000000    -1.220000000
H     8.920000000     0.072000000    -0.607000000
O     4.192000000     6.694000000    -1.404000000
H     3.881000000     6.283000000    -2.211000000
H     4.579000000     5.975000000    -0.904000000
O     7.002000000     5.124000000     4.649000000
H     7.264000000     4.962000000     5.555000000
H     6.687000000     4.277000000     4.335000000
O     7.956000000     3.650000000    -1.952000000
H     7.481000000     4.399000000    -1.594000000
H     8.875000000     3.832000000    -1.754000000
O     6.193000000     1.732000000    -2.327000000
H     5.684000000     1.865000000    -1.528000000
H     7.046000000     2.121000000    -2.135000000
