218
-1471.48621
C     3.136000000    -4.092000000     2.181000000
H     2.900000000    -4.850000000     1.438000000
C     2.116000000    -3.341000000     2.722000000
C     2.497000000    -2.297000000     3.608000000
H     1.702000000    -1.689000000     4.032000000
C     0.593000000    -3.578000000     2.387000000
O     0.390000000    -4.795000000     1.639000000
H     0.303000000    -2.700000000     1.790000000
O    -0.325000000    -3.489000000     3.542000000
C    -1.470000000    -2.778000000     3.302000000
C    -1.503000000    -1.421000000     3.743000000
H    -0.741000000    -1.126000000     4.460000000
C    -2.642000000    -0.626000000     3.643000000
O    -2.726000000     0.554000000     4.211000000
C    -3.725000000    -1.174000000     2.942000000
C    -4.914000000    -0.264000000     2.716000000
H    -5.763000000    -0.928000000     2.542000000
C    -4.669000000     0.632000000     1.478000000
C    -4.970000000     0.187000000     0.196000000
H    -5.514000000    -0.747000000     0.085000000
H    -5.155000000     0.421000000     3.532000000
C    -3.654000000    -2.444000000     2.320000000
H    -4.501000000    -2.866000000     1.786000000
C    -2.546000000    -3.271000000     2.529000000
C    -2.613000000    -4.665000000     2.013000000
H    -3.647000000    -5.007000000     1.931000000
H    -2.252000000    -5.383000000     2.753000000
C    -1.846000000    -4.689000000     0.639000000
C    -2.503000000    -4.539000000    -0.590000000
H    -3.589000000    -4.562000000    -0.547000000
C    -0.415000000    -4.674000000     0.543000000
C     0.256000000    -4.606000000    -0.648000000
H     1.342000000    -4.564000000    -0.620000000
C    -0.408000000    -4.257000000    -1.768000000
O     0.351000000    -4.000000000    -2.885000000
C     0.499000000    -2.605000000    -3.311000000
C     1.971000000    -2.164000000    -3.583000000
C     2.162000000    -1.334000000    -4.681000000
H     1.296000000    -0.990000000    -5.240000000
C     3.039000000    -2.715000000    -2.869000000
H     2.849000000    -3.518000000    -2.161000000
O    -0.490000000    -2.192000000    -4.372000000
H     0.256000000    -2.056000000    -2.389000000
C    -1.760000000    -4.273000000    -1.789000000
C    -2.504000000    -3.795000000    -3.028000000
H    -3.477000000    -4.287000000    -2.976000000
H    -2.065000000    -4.207000000    -3.940000000
C    -2.589000000    -2.290000000    -3.247000000
C    -3.741000000    -1.627000000    -2.842000000
H    -4.538000000    -2.132000000    -2.302000000
C    -1.625000000    -1.613000000    -3.952000000
C    -1.698000000    -0.193000000    -4.120000000
H    -0.868000000     0.334000000    -4.585000000
C    -2.755000000     0.500000000    -3.571000000
O    -2.723000000     1.847000000    -3.718000000
C    -2.295000000     2.502000000    -2.531000000
C    -1.398000000     3.756000000    -2.880000000
C    -0.248000000     3.548000000    -3.625000000
H    -0.266000000     2.602000000    -4.160000000
C    -1.568000000     4.962000000    -2.289000000
H    -2.494000000     5.213000000    -1.779000000
O    -3.452000000     2.910000000    -1.733000000
H    -1.632000000     1.917000000    -1.875000000
C    -3.834000000    -0.240000000    -2.953000000
C    -5.026000000     0.536000000    -2.367000000
H    -5.944000000    -0.054000000    -2.350000000
H    -5.259000000     1.420000000    -2.964000000
C    -4.694000000     0.907000000    -0.936000000
C    -3.963000000     2.143000000    -0.697000000
C    -3.767000000     2.644000000     0.548000000
H    -3.237000000     3.584000000     0.677000000
C    -4.057000000     1.889000000     1.622000000
O    -3.706000000     2.341000000     2.848000000
C    -2.476000000     1.679000000     3.334000000
H    -1.884000000     1.389000000     2.454000000
C    -1.474000000     2.687000000     3.901000000
C    -0.475000000     2.275000000     4.808000000
H    -0.598000000     1.319000000     5.311000000
C    -1.269000000     3.896000000     3.220000000
H    -1.879000000     4.120000000     2.349000000
C    -0.241000000     4.756000000     3.619000000
O     0.016000000     5.941000000     2.965000000
C     0.647000000     4.340000000     4.643000000
H     1.470000000     5.020000000     4.845000000
C     0.579000000     3.095000000     5.212000000
O     1.472000000     2.640000000     6.209000000
C     1.917000000     1.318000000     6.349000000
C     2.826000000     0.799000000     5.510000000
H     3.191000000     1.501000000     4.765000000
C     1.397000000     0.558000000     7.378000000
H     0.686000000     1.008000000     8.067000000
C     1.863000000    -0.744000000     7.577000000
H     1.421000000    -1.404000000     8.319000000
C     2.779000000    -1.292000000     6.662000000
H     3.182000000    -2.291000000     6.806000000
C     3.243000000    -0.535000000     5.633000000
O     4.187000000    -1.044000000     4.774000000
C     3.826000000    -2.002000000     3.859000000
C     4.822000000    -2.779000000     3.279000000
H     5.870000000    -2.516000000     3.399000000
C     4.473000000    -3.838000000     2.414000000
O     5.468000000    -4.563000000     1.791000000
C     5.577000000    -4.728000000     0.401000000
C     5.495000000    -3.573000000    -0.426000000
H     5.234000000    -2.594000000    -0.033000000
C     5.904000000    -5.943000000    -0.118000000
H     6.065000000    -6.830000000     0.490000000
C     6.074000000    -6.056000000    -1.459000000
H     6.512000000    -6.979000000    -1.830000000
C     5.791000000    -5.017000000    -2.327000000
H     5.906000000    -5.112000000    -3.403000000
C     5.491000000    -3.757000000    -1.791000000
O     5.440000000    -2.753000000    -2.628000000
C     4.317000000    -2.282000000    -3.222000000
C     4.478000000    -1.227000000    -4.088000000
H     5.458000000    -0.820000000    -4.325000000
C     3.450000000    -0.804000000    -4.873000000
O     3.780000000     0.179000000    -5.703000000
C     2.844000000     1.136000000    -5.991000000
C     2.772000000     2.288000000    -5.177000000
H     3.394000000     2.405000000    -4.294000000
C     1.845000000     0.897000000    -6.923000000
H     1.797000000    -0.068000000    -7.420000000
C     0.911000000     1.880000000    -7.255000000
H     0.273000000     1.851000000    -8.134000000
C     0.903000000     3.110000000    -6.594000000
H     0.347000000     4.000000000    -6.876000000
C     1.797000000     3.273000000    -5.523000000
O     1.739000000     4.419000000    -4.677000000
C     0.668000000     4.548000000    -3.800000000
C     0.534000000     5.765000000    -3.159000000
H     1.249000000     6.575000000    -3.275000000
C    -0.627000000     5.958000000    -2.400000000
O    -0.738000000     7.162000000    -1.683000000
C    -1.216000000     7.103000000    -0.331000000
C    -2.375000000     7.685000000     0.146000000
H    -3.018000000     8.220000000    -0.548000000
C    -2.737000000     7.771000000     1.497000000
H    -3.621000000     8.265000000     1.893000000
C    -1.904000000     7.168000000     2.431000000
H    -2.021000000     7.322000000     3.500000000
C    -0.777000000     6.473000000     1.979000000
C    -0.478000000     6.322000000     0.606000000
H     0.486000000     5.859000000     0.410000000
C     2.563000000     0.714000000    -1.443000000
H     2.879000000     1.233000000    -2.344000000
C     1.222000000     0.438000000    -1.337000000
H     0.650000000     0.639000000    -2.239000000
C     0.669000000    -0.034000000    -0.136000000
C    -0.882000000    -0.194000000     0.064000000
H    -1.255000000     0.754000000     0.456000000
H    -1.367000000    -0.417000000    -0.889000000
H    -1.016000000    -1.099000000     0.660000000
C     1.550000000    -0.279000000     0.936000000
H     1.127000000    -0.725000000     1.833000000
C     2.927000000    -0.117000000     0.809000000
H     3.587000000    -0.430000000     1.614000000
C     3.413000000     0.494000000    -0.336000000
C     4.855000000     0.963000000    -0.427000000
O     5.570000000     1.186000000     0.557000000
O     5.281000000     1.122000000    -1.544000000
O     3.062000000     6.694000000     2.249000000
H     2.381000000     7.355000000     2.371000000
H     2.698000000     6.092000000     1.600000000
O     9.259000000    -2.302000000     0.696000000
H     9.819000000    -1.526000000     0.666000000
H     8.712000000    -2.233000000    -0.086000000
O     7.985000000     3.967000000     3.364000000
H     7.910000000     4.595000000     4.084000000
H     7.469000000     3.213000000     3.650000000
O     5.011000000     4.567000000    -4.023000000
H     5.514000000     3.933000000    -4.534000000
H     4.907000000     4.155000000    -3.165000000
O    10.458000000     0.431000000     0.731000000
H    10.059000000     1.276000000     0.524000000
H    10.786000000     0.535000000     1.624000000
O     2.878000000     5.285000000    -0.385000000
H     3.572000000     4.793000000    -0.825000000
H     2.458000000     4.644000000     0.189000000
O     1.903000000     2.923000000     1.023000000
H     1.622000000     2.040000000     0.784000000
H     2.551000000     2.789000000     1.715000000
O     8.329000000    -0.240000000     4.306000000
H     7.917000000    -0.505000000     3.483000000
H     8.283000000    -1.019000000     4.859000000
O     4.313000000     2.267000000     2.922000000
H     4.456000000     1.873000000     2.061000000
H     4.844000000     1.738000000     3.518000000
O     6.875000000     5.832000000     1.556000000
H     6.957000000     5.109000000     2.177000000
H     7.739000000     5.898000000     1.150000000
O     7.061000000    -0.679000000     1.953000000
H     6.519000000    -0.068000000     1.454000000
H     7.803000000    -0.866000000     1.378000000
O     9.313000000    -0.031000000    -2.879000000
H     9.022000000     0.862000000    -3.067000000
H     8.655000000    -0.374000000    -2.274000000
O     6.215000000     1.952000000    -4.044000000
H     5.838000000     1.488000000    -3.297000000
H     6.996000000     2.378000000    -3.692000000
O     8.224000000     2.309000000     0.163000000
H     7.464000000     2.070000000     0.694000000
H     8.773000000     2.828000000     0.751000000
O     4.985000000     4.571000000     4.078000000
H     4.940000000     3.792000000     3.523000000
H     4.075000000     4.747000000     4.317000000
O     5.428000000     3.672000000    -1.464000000
H     6.375000000     3.803000000    -1.416000000
H     5.318000000     2.721000000    -1.471000000
O     6.956000000     1.998000000     4.786000000
H     6.440000000     1.666000000     5.521000000
H     7.573000000     1.293000000     4.590000000
O     8.242000000     2.844000000    -2.489000000
H     8.190000000     2.501000000    -1.597000000
H     8.997000000     3.432000000    -2.475000000
O     7.402000000    -0.834000000    -1.027000000
H     6.792000000    -1.482000000    -1.379000000
H     6.929000000    -0.004000000    -1.085000000
