218
-1464.74868
C     2.336000000    -3.464000000     2.518000000
H     2.022000000    -3.862000000     1.556000000
C     1.351000000    -3.190000000     3.483000000
C     1.684000000    -2.633000000     4.678000000
H     0.927000000    -2.391000000     5.420000000
C    -0.151000000    -3.194000000     3.034000000
O    -0.529000000    -4.395000000     2.280000000
H    -0.194000000    -2.308000000     2.383000000
O    -1.119000000    -2.967000000     4.178000000
C    -2.040000000    -2.037000000     3.925000000
C    -1.863000000    -0.737000000     4.457000000
H    -1.104000000    -0.592000000     5.222000000
C    -2.709000000     0.264000000     4.010000000
O    -2.333000000     1.561000000     4.206000000
C    -3.772000000     0.081000000     3.091000000
C    -4.673000000     1.217000000     2.677000000
H    -5.678000000     0.818000000     2.521000000
C    -4.281000000     1.833000000     1.389000000
C    -4.895000000     1.373000000     0.152000000
H    -5.695000000     0.646000000     0.265000000
H    -4.669000000     2.007000000     3.431000000
C    -3.970000000    -1.194000000     2.648000000
H    -4.843000000    -1.327000000     2.014000000
C    -3.149000000    -2.252000000     3.019000000
C    -3.432000000    -3.554000000     2.346000000
H    -4.495000000    -3.688000000     2.138000000
H    -3.117000000    -4.290000000     3.088000000
C    -2.539000000    -3.778000000     1.131000000
C    -3.157000000    -3.663000000    -0.071000000
H    -4.196000000    -3.344000000    -0.068000000
C    -1.250000000    -4.201000000     1.154000000
C    -0.535000000    -4.382000000    -0.064000000
H     0.535000000    -4.551000000     0.027000000
C    -1.151000000    -4.220000000    -1.315000000
O    -0.449000000    -4.212000000    -2.511000000
C    -0.143000000    -2.882000000    -2.993000000
C     1.260000000    -2.809000000    -3.512000000
C     1.618000000    -2.001000000    -4.581000000
H     0.840000000    -1.423000000    -5.073000000
C     2.300000000    -3.562000000    -2.840000000
H     2.107000000    -4.088000000    -1.908000000
O    -1.025000000    -2.529000000    -4.046000000
H    -0.195000000    -2.176000000    -2.151000000
C    -2.505000000    -3.905000000    -1.308000000
C    -3.322000000    -3.641000000    -2.543000000
H    -4.391000000    -3.866000000    -2.515000000
H    -3.024000000    -4.373000000    -3.297000000
C    -3.179000000    -2.209000000    -3.023000000
C    -4.048000000    -1.265000000    -2.533000000
H    -4.793000000    -1.550000000    -1.795000000
C    -2.092000000    -1.717000000    -3.780000000
C    -1.933000000    -0.417000000    -4.066000000
H    -1.029000000    -0.037000000    -4.535000000
C    -2.864000000     0.493000000    -3.632000000
O    -2.617000000     1.807000000    -3.884000000
C    -1.881000000     2.508000000    -2.921000000
C    -0.813000000     3.420000000    -3.459000000
C    -0.032000000     3.006000000    -4.499000000
H    -0.306000000     2.071000000    -4.981000000
C    -0.491000000     4.624000000    -2.748000000
H    -1.128000000     4.950000000    -1.930000000
O    -2.873000000     3.201000000    -2.245000000
H    -1.341000000     1.816000000    -2.258000000
C    -3.968000000     0.097000000    -2.847000000
C    -5.002000000     1.132000000    -2.326000000
H    -5.943000000     0.602000000    -2.164000000
H    -5.120000000     2.002000000    -2.975000000
C    -4.437000000     1.763000000    -1.073000000
C    -3.487000000     2.782000000    -1.053000000
C    -2.959000000     3.301000000     0.118000000
H    -2.226000000     4.098000000     0.025000000
C    -3.294000000     2.797000000     1.346000000
O    -2.605000000     3.204000000     2.465000000
C    -1.738000000     2.207000000     3.053000000
H    -1.680000000     1.481000000     2.229000000
C    -0.480000000     2.877000000     3.410000000
C     0.105000000     2.671000000     4.687000000
H    -0.456000000     2.034000000     5.366000000
C     0.120000000     3.679000000     2.520000000
H    -0.362000000     3.856000000     1.562000000
C     1.385000000     4.243000000     2.775000000
O     2.011000000     5.140000000     1.872000000
C     1.997000000     3.891000000     3.957000000
H     2.917000000     4.423000000     4.186000000
C     1.386000000     3.159000000     4.959000000
O     1.978000000     2.849000000     6.214000000
C     1.879000000     1.575000000     6.763000000
C     2.585000000     0.520000000     6.114000000
H     3.119000000     0.831000000     5.220000000
C     1.279000000     1.304000000     7.948000000
H     0.693000000     2.063000000     8.461000000
C     1.414000000     0.059000000     8.573000000
H     0.923000000    -0.059000000     9.536000000
C     2.075000000    -1.005000000     7.967000000
H     2.158000000    -1.961000000     8.479000000
C     2.580000000    -0.794000000     6.700000000
O     3.434000000    -1.742000000     6.113000000
C     3.049000000    -2.369000000     4.943000000
C     4.058000000    -2.643000000     3.988000000
H     5.087000000    -2.385000000     4.227000000
C     3.682000000    -3.215000000     2.784000000
O     4.744000000    -3.382000000     1.841000000
C     4.760000000    -4.325000000     0.844000000
C     4.815000000    -3.860000000    -0.459000000
H     4.952000000    -2.795000000    -0.626000000
C     4.509000000    -5.700000000     1.136000000
H     4.576000000    -6.077000000     2.153000000
C     4.532000000    -6.613000000     0.101000000
H     4.361000000    -7.665000000     0.318000000
C     4.609000000    -6.102000000    -1.183000000
H     4.474000000    -6.803000000    -2.003000000
C     4.732000000    -4.757000000    -1.502000000
O     4.623000000    -4.209000000    -2.769000000
C     3.601000000    -3.499000000    -3.335000000
C     3.895000000    -2.659000000    -4.394000000
H     4.935000000    -2.637000000    -4.710000000
C     2.902000000    -1.911000000    -5.017000000
O     3.268000000    -1.083000000    -6.061000000
C     2.550000000    -0.126000000    -6.680000000
C     2.362000000     1.055000000    -5.966000000
H     2.767000000     1.108000000    -4.959000000
C     2.106000000    -0.213000000    -8.029000000
H     2.518000000    -1.078000000    -8.543000000
C     1.581000000     0.891000000    -8.636000000
H     1.281000000     0.867000000    -9.681000000
C     1.474000000     2.099000000    -7.981000000
H     1.173000000     2.996000000    -8.517000000
C     1.869000000     2.203000000    -6.612000000
O     1.900000000     3.388000000    -5.999000000
C     1.068000000     3.707000000    -4.930000000
C     1.381000000     4.963000000    -4.351000000
H     2.231000000     5.563000000    -4.668000000
C     0.566000000     5.352000000    -3.290000000
O     0.968000000     6.487000000    -2.609000000
C     0.701000000     6.533000000    -1.283000000
C    -0.358000000     7.313000000    -0.840000000
H    -0.929000000     7.801000000    -1.626000000
C    -0.590000000     7.343000000     0.535000000
H    -1.435000000     7.944000000     0.859000000
C     0.197000000     6.684000000     1.445000000
H     0.028000000     6.733000000     2.518000000
C     1.224000000     5.924000000     0.988000000
C     1.558000000     5.958000000    -0.325000000
H     2.356000000     5.311000000    -0.678000000
C     2.578000000    -0.113000000    -1.451000000
H     3.040000000    -0.030000000    -2.431000000
C     1.204000000    -0.078000000    -1.266000000
H     0.503000000    -0.177000000    -2.091000000
C     0.586000000    -0.214000000    -0.003000000
C    -0.928000000    -0.251000000     0.123000000
H    -1.247000000    -0.683000000     1.074000000
H    -1.211000000     0.804000000     0.114000000
H    -1.413000000    -0.803000000    -0.685000000
C     1.374000000    -0.212000000     1.111000000
H     1.043000000    -0.324000000     2.140000000
C     2.747000000    -0.210000000     0.947000000
H     3.350000000    -0.196000000     1.851000000
C     3.389000000    -0.104000000    -0.309000000
C     4.923000000     0.100000000    -0.360000000
O     5.472000000    -0.169000000     0.710000000
O     5.578000000     0.415000000    -1.332000000
O     6.213000000     4.718000000     2.307000000
H     5.975000000     4.333000000     1.464000000
H     5.841000000     4.121000000     2.956000000
O     4.878000000     3.426000000     0.486000000
H     3.941000000     3.480000000     0.298000000
H     4.938000000     2.849000000     1.247000000
O     9.024000000     3.188000000     2.204000000
H     9.217000000     2.784000000     3.050000000
H     8.502000000     2.534000000     1.739000000
O     8.407000000    -0.240000000     4.951000000
H     7.744000000     0.296000000     4.517000000
H     7.905000000    -0.862000000     5.478000000
O     9.042000000     5.109000000     0.345000000
H     8.961000000     4.554000000     1.120000000
H     8.711000000     4.568000000    -0.372000000
O     6.018000000     1.305000000    -5.781000000
H     5.706000000     1.655000000    -6.616000000
H     6.294000000     2.077000000    -5.286000000
O     1.812000000     2.600000000     0.078000000
H     1.590000000     2.546000000     1.007000000
H     1.824000000     1.690000000    -0.219000000
O     8.762000000    -1.144000000    -1.710000000
H     9.513000000    -1.374000000    -2.257000000
H     8.077000000    -0.901000000    -2.333000000
O     7.773000000    -1.907000000     0.871000000
H     6.918000000    -1.648000000     1.213000000
H     7.731000000    -1.702000000    -0.063000000
O     5.130000000     1.692000000     2.412000000
H     5.608000000     1.009000000     1.942000000
H     5.476000000     1.656000000     3.304000000
O     7.580000000    -2.543000000    -4.633000000
H     8.347000000    -2.112000000    -5.011000000
H     7.155000000    -1.861000000    -4.113000000
O     7.830000000     0.629000000     1.653000000
H     7.020000000     0.427000000     1.186000000
H     8.234000000    -0.224000000     1.813000000
O     7.148000000     2.541000000    -0.931000000
H     6.808000000     1.716000000    -1.278000000
H     6.368000000     3.065000000    -0.752000000
O     8.604000000    -4.661000000     0.669000000
H     8.109000000    -3.844000000     0.723000000
H     8.698000000    -4.945000000     1.578000000
O     6.104000000     3.542000000    -4.122000000
H     5.775000000     3.963000000    -3.328000000
H     5.983000000     4.197000000    -4.809000000
O     9.593000000     2.782000000    -2.279000000
H     8.646000000     2.648000000    -2.309000000
H     9.798000000     2.841000000    -1.346000000
O     6.016000000     0.889000000     4.736000000
H     5.858000000     0.229000000     5.411000000
H     5.970000000     1.724000000     5.202000000
O    10.134000000     0.939000000    -0.389000000
H    10.046000000     0.297000000    -1.093000000
H     9.270000000     0.966000000     0.021000000
O     6.621000000    -0.298000000    -3.497000000
H     6.017000000    -0.128000000    -2.774000000
H     6.371000000     0.335000000    -4.170000000
