218
-1484.45158
C     3.317000000    -3.342000000     1.552000000
H     3.289000000    -3.627000000     0.504000000
C     2.073000000    -3.389000000     2.282000000
C     1.994000000    -2.967000000     3.651000000
H     1.096000000    -3.084000000     4.253000000
C     0.813000000    -3.697000000     1.529000000
O     1.076000000    -4.502000000     0.282000000
H     0.391000000    -2.755000000     1.149000000
O    -0.273000000    -4.272000000     2.300000000
C    -1.580000000    -3.799000000     2.154000000
C    -1.965000000    -2.849000000     3.079000000
H    -1.402000000    -2.700000000     3.997000000
C    -3.152000000    -2.162000000     2.921000000
O    -3.365000000    -1.120000000     3.794000000
C    -3.969000000    -2.425000000     1.804000000
C    -5.249000000    -1.713000000     1.476000000
H    -5.955000000    -2.387000000     0.988000000
C    -4.946000000    -0.465000000     0.723000000
C    -4.944000000    -0.461000000    -0.649000000
H    -4.983000000    -1.352000000    -1.270000000
H    -5.816000000    -1.502000000     2.386000000
C    -3.513000000    -3.353000000     0.885000000
H    -4.068000000    -3.474000000    -0.042000000
C    -2.331000000    -4.053000000     1.041000000
C    -1.852000000    -5.007000000    -0.052000000
H    -2.695000000    -5.544000000    -0.492000000
H    -1.246000000    -5.767000000     0.447000000
C    -0.987000000    -4.363000000    -1.065000000
C    -1.585000000    -4.059000000    -2.303000000
H    -2.629000000    -4.285000000    -2.502000000
C     0.418000000    -4.114000000    -0.907000000
C     1.245000000    -3.564000000    -1.926000000
H     2.226000000    -3.150000000    -1.708000000
C     0.596000000    -3.247000000    -3.108000000
O     1.211000000    -2.562000000    -4.095000000
C     1.265000000    -1.172000000    -3.954000000
C     2.712000000    -0.716000000    -4.053000000
C     3.009000000     0.539000000    -4.489000000
H     2.181000000     1.187000000    -4.762000000
C     3.791000000    -1.464000000    -3.641000000
H     3.653000000    -2.529000000    -3.474000000
O     0.395000000    -0.652000000    -4.932000000
H     0.860000000    -0.908000000    -2.966000000
C    -0.766000000    -3.460000000    -3.311000000
C    -1.431000000    -2.877000000    -4.502000000
H    -2.348000000    -3.468000000    -4.557000000
H    -0.894000000    -3.069000000    -5.434000000
C    -1.810000000    -1.441000000    -4.317000000
C    -3.050000000    -1.095000000    -3.802000000
H    -3.642000000    -1.953000000    -3.495000000
C    -0.886000000    -0.329000000    -4.558000000
C    -1.213000000     0.932000000    -4.254000000
H    -0.492000000     1.725000000    -4.435000000
C    -2.469000000     1.237000000    -3.784000000
O    -2.896000000     2.479000000    -3.421000000
C    -2.622000000     2.744000000    -2.020000000
C    -1.737000000     4.018000000    -1.943000000
C    -0.760000000     4.302000000    -2.938000000
H    -0.652000000     3.698000000    -3.835000000
C    -1.838000000     4.899000000    -0.839000000
H    -2.534000000     4.699000000    -0.028000000
O    -3.881000000     3.063000000    -1.402000000
H    -2.181000000     1.923000000    -1.435000000
C    -3.381000000     0.216000000    -3.480000000
C    -4.807000000     0.580000000    -2.933000000
H    -5.458000000    -0.270000000    -3.147000000
H    -5.288000000     1.462000000    -3.361000000
C    -4.681000000     0.717000000    -1.375000000
C    -4.373000000     1.906000000    -0.715000000
C    -4.181000000     1.820000000     0.697000000
H    -3.791000000     2.681000000     1.234000000
C    -4.441000000     0.658000000     1.407000000
O    -4.158000000     0.737000000     2.745000000
C    -2.939000000     0.172000000     3.226000000
H    -2.245000000    -0.018000000     2.395000000
C    -2.183000000     1.009000000     4.226000000
C    -1.644000000     0.356000000     5.338000000
H    -1.871000000    -0.697000000     5.481000000
C    -1.974000000     2.343000000     3.941000000
H    -2.398000000     2.801000000     3.051000000
C    -1.049000000     3.001000000     4.782000000
O    -0.583000000     4.187000000     4.353000000
C    -0.497000000     2.425000000     5.937000000
H     0.114000000     3.104000000     6.526000000
C    -0.810000000     1.114000000     6.152000000
O    -0.268000000     0.439000000     7.270000000
C     0.403000000    -0.723000000     7.138000000
C     1.504000000    -0.963000000     6.266000000
H     1.884000000    -0.152000000     5.649000000
C    -0.053000000    -1.751000000     8.007000000
H    -0.955000000    -1.547000000     8.579000000
C     0.591000000    -3.007000000     8.012000000
H     0.198000000    -3.771000000     8.678000000
C     1.760000000    -3.237000000     7.188000000
H     2.341000000    -4.155000000     7.157000000
C     2.195000000    -2.155000000     6.392000000
O     3.295000000    -2.408000000     5.619000000
C     3.175000000    -2.549000000     4.273000000
C     4.359000000    -2.482000000     3.501000000
H     5.257000000    -2.183000000     4.035000000
C     4.472000000    -2.827000000     2.160000000
O     5.665000000    -2.726000000     1.471000000
C     5.895000000    -3.129000000     0.172000000
C     5.859000000    -2.196000000    -0.855000000
H     5.481000000    -1.225000000    -0.547000000
C     6.251000000    -4.393000000    -0.121000000
H     6.391000000    -5.112000000     0.682000000
C     6.479000000    -4.810000000    -1.406000000
H     6.749000000    -5.845000000    -1.600000000
C     6.364000000    -3.926000000    -2.470000000
H     6.490000000    -4.348000000    -3.463000000
C     6.061000000    -2.572000000    -2.173000000
O     6.156000000    -1.702000000    -3.248000000
C     5.083000000    -0.915000000    -3.606000000
C     5.346000000     0.408000000    -3.869000000
H     6.331000000     0.853000000    -3.752000000
C     4.258000000     1.115000000    -4.308000000
O     4.451000000     2.427000000    -4.746000000
C     3.405000000     3.284000000    -5.098000000
C     2.626000000     3.914000000    -4.133000000
H     2.837000000     3.763000000    -3.078000000
C     3.238000000     3.475000000    -6.461000000
H     3.871000000     2.969000000    -7.185000000
C     2.364000000     4.471000000    -6.910000000
H     2.203000000     4.738000000    -7.952000000
C     1.620000000     5.143000000    -5.958000000
H     0.910000000     5.880000000    -6.326000000
C     1.717000000     4.857000000    -4.549000000
O     0.971000000     5.728000000    -3.804000000
C     0.059000000     5.427000000    -2.826000000
C    -0.032000000     6.190000000    -1.669000000
H     0.597000000     7.075000000    -1.609000000
C    -0.978000000     5.949000000    -0.696000000
O    -1.048000000     6.791000000     0.382000000
C    -1.555000000     6.336000000     1.551000000
C    -2.770000000     6.850000000     1.989000000
H    -3.296000000     7.585000000     1.384000000
C    -3.205000000     6.423000000     3.246000000
H    -4.117000000     6.775000000     3.720000000
C    -2.513000000     5.515000000     3.981000000
H    -2.883000000     5.131000000     4.928000000
C    -1.316000000     5.042000000     3.539000000
C    -0.755000000     5.543000000     2.384000000
H     0.247000000     5.225000000     2.106000000
C     3.094000000     1.012000000    -0.169000000
H     3.816000000     1.535000000    -0.790000000
C     1.794000000     0.705000000    -0.653000000
H     1.458000000     0.893000000    -1.670000000
C     0.864000000     0.145000000     0.200000000
C    -0.483000000    -0.115000000    -0.244000000
H    -0.886000000    -0.930000000     0.360000000
H    -1.111000000     0.775000000    -0.167000000
H    -0.476000000    -0.439000000    -1.287000000
C     1.223000000    -0.051000000     1.578000000
H     0.416000000    -0.386000000     2.225000000
C     2.533000000     0.259000000     2.047000000
H     2.694000000     0.097000000     3.110000000
C     3.495000000     0.658000000     1.139000000
C     4.946000000     0.942000000     1.622000000
O     5.106000000     0.944000000     2.842000000
O     5.760000000     1.479000000     0.892000000
O     1.993000000     3.764000000     0.820000000
H     1.970000000     2.808000000     0.774000000
H     2.568000000     3.954000000     1.562000000
O     2.355000000     6.484000000     2.469000000
H     3.077000000     6.275000000     1.877000000
H     1.857000000     7.160000000     2.009000000
O     7.417000000    -0.185000000     3.717000000
H     6.595000000     0.020000000     3.271000000
H     7.953000000    -0.609000000     3.048000000
O     4.284000000     3.928000000     2.377000000
H     4.296000000     3.226000000     3.028000000
H     5.023000000     4.488000000     2.614000000
O     3.550000000     5.540000000    -1.047000000
H     2.789000000     5.241000000    -0.549000000
H     4.164000000     4.807000000    -1.010000000
O    10.333000000     2.444000000     2.547000000
H     9.395000000     2.497000000     2.365000000
H    10.525000000     3.238000000     3.045000000
O     7.210000000     1.451000000    -1.204000000
H     6.450000000     1.546000000    -0.631000000
H     7.246000000     2.273000000    -1.693000000
O     6.833000000     5.513000000     1.183000000
H     7.234000000     5.871000000     1.975000000
H     6.342000000     6.246000000     0.811000000
O     7.670000000     2.131000000     5.241000000
H     6.792000000     2.449000000     5.032000000
H     7.829000000     1.431000000     4.608000000
O     5.878000000     4.558000000     6.831000000
H     6.737000000     4.980000000     6.856000000
H     5.901000000     4.014000000     6.044000000
O     9.716000000     0.939000000    -1.684000000
H     8.833000000     1.198000000    -1.419000000
H    10.276000000     1.226000000    -0.962000000
O     5.208000000     3.677000000    -0.356000000
H     5.322000000     2.905000000     0.197000000
H     5.582000000     4.395000000     0.156000000
O     7.237000000    -0.996000000     6.318000000
H     7.281000000    -0.179000000     6.815000000
H     7.068000000    -0.719000000     5.417000000
O     5.117000000     2.686000000     4.924000000
H     4.995000000     2.205000000     5.743000000
H     5.049000000     2.018000000     4.242000000
O     5.935000000    -5.340000000     3.124000000
H     6.073000000    -4.475000000     2.739000000
H     5.455000000    -5.168000000     3.934000000
O     4.678000000     1.185000000     7.171000000
H     4.232000000     0.339000000     7.183000000
H     5.498000000     1.030000000     7.639000000
O     7.227000000     3.437000000    -2.899000000
H     7.155000000     3.412000000    -3.853000000
H     6.574000000     4.083000000    -2.628000000
O     8.652000000    -1.373000000     1.518000000
H     7.872000000    -1.244000000     0.978000000
H     9.333000000    -0.862000000     1.081000000
O     7.675000000     2.904000000     1.934000000
H     7.029000000     2.233000000     1.714000000
H     7.343000000     3.701000000     1.522000000
