218
-1457.15625
C     3.525000000    -3.585000000     1.932000000
H     3.548000000    -3.855000000     0.879000000
C     2.284000000    -3.737000000     2.608000000
C     2.214000000    -3.423000000     3.955000000
H     1.231000000    -3.375000000     4.416000000
C     1.026000000    -3.986000000     1.822000000
O     1.301000000    -4.972000000     0.765000000
H     0.716000000    -3.041000000     1.352000000
O    -0.091000000    -4.347000000     2.704000000
C    -1.323000000    -3.842000000     2.477000000
C    -1.661000000    -2.680000000     3.145000000
H    -0.997000000    -2.394000000     3.957000000
C    -2.862000000    -2.086000000     2.789000000
O    -3.073000000    -0.907000000     3.511000000
C    -3.670000000    -2.543000000     1.728000000
C    -4.937000000    -1.788000000     1.423000000
H    -5.644000000    -2.452000000     0.921000000
C    -4.724000000    -0.528000000     0.594000000
C    -4.985000000    -0.636000000    -0.756000000
H    -5.256000000    -1.600000000    -1.180000000
H    -5.422000000    -1.560000000     2.375000000
C    -3.268000000    -3.644000000     1.012000000
H    -3.835000000    -3.948000000     0.136000000
C    -2.088000000    -4.302000000     1.350000000
C    -1.640000000    -5.419000000     0.443000000
H    -2.487000000    -5.905000000    -0.045000000
H    -1.200000000    -6.230000000     1.028000000
C    -0.614000000    -4.912000000    -0.686000000
C    -1.214000000    -4.448000000    -1.869000000
H    -2.265000000    -4.671000000    -2.034000000
C     0.728000000    -4.779000000    -0.465000000
C     1.445000000    -4.129000000    -1.479000000
H     2.508000000    -3.919000000    -1.383000000
C     0.828000000    -3.563000000    -2.598000000
O     1.592000000    -2.832000000    -3.530000000
C     1.370000000    -1.451000000    -3.603000000
C     2.756000000    -0.772000000    -3.713000000
C     2.931000000     0.452000000    -4.417000000
H     2.077000000     0.859000000    -4.953000000
C     3.827000000    -1.265000000    -2.959000000
H     3.699000000    -2.164000000    -2.362000000
O     0.539000000    -1.152000000    -4.757000000
H     0.856000000    -1.145000000    -2.680000000
C    -0.485000000    -3.878000000    -2.907000000
C    -1.235000000    -3.339000000    -4.139000000
H    -2.128000000    -3.952000000    -4.282000000
H    -0.610000000    -3.621000000    -4.988000000
C    -1.614000000    -1.902000000    -4.074000000
C    -2.945000000    -1.547000000    -3.657000000
H    -3.573000000    -2.349000000    -3.278000000
C    -0.769000000    -0.883000000    -4.489000000
C    -1.197000000     0.427000000    -4.480000000
H    -0.522000000     1.233000000    -4.756000000
C    -2.535000000     0.761000000    -4.098000000
O    -2.705000000     2.120000000    -3.858000000
C    -2.716000000     2.707000000    -2.483000000
C    -1.975000000     4.006000000    -2.302000000
C    -1.001000000     4.324000000    -3.206000000
H    -0.761000000     3.617000000    -3.997000000
C    -2.232000000     4.867000000    -1.242000000
H    -3.153000000     4.798000000    -0.670000000
O    -4.082000000     2.748000000    -1.905000000
H    -2.105000000     2.042000000    -1.853000000
C    -3.390000000    -0.250000000    -3.594000000
C    -4.815000000     0.101000000    -3.081000000
H    -5.506000000    -0.730000000    -3.239000000
H    -5.146000000     0.919000000    -3.724000000
C    -4.765000000     0.473000000    -1.603000000
C    -4.361000000     1.691000000    -1.053000000
C    -4.012000000     1.712000000     0.233000000
H    -3.496000000     2.559000000     0.679000000
C    -4.200000000     0.695000000     1.108000000
O    -3.915000000     0.942000000     2.398000000
C    -2.681000000     0.313000000     2.846000000
H    -1.973000000     0.045000000     2.048000000
C    -2.004000000     1.325000000     3.789000000
C    -0.781000000     0.944000000     4.453000000
H    -0.414000000    -0.070000000     4.318000000
C    -2.451000000     2.664000000     3.970000000
H    -3.352000000     3.047000000     3.498000000
C    -1.607000000     3.653000000     4.603000000
O    -1.881000000     4.979000000     4.691000000
C    -0.469000000     3.261000000     5.238000000
H     0.116000000     3.960000000     5.830000000
C    -0.101000000     1.891000000     5.247000000
O     1.048000000     1.578000000     5.832000000
C     1.185000000     0.327000000     6.411000000
C     2.123000000    -0.549000000     5.879000000
H     2.701000000    -0.269000000     5.002000000
C     0.523000000     0.012000000     7.603000000
H    -0.267000000     0.616000000     8.042000000
C     0.754000000    -1.255000000     8.154000000
H     0.243000000    -1.539000000     9.070000000
C     1.664000000    -2.108000000     7.644000000
H     1.755000000    -3.137000000     7.983000000
C     2.382000000    -1.722000000     6.542000000
O     3.277000000    -2.646000000     5.992000000
C     3.306000000    -3.040000000     4.649000000
C     4.537000000    -3.003000000     3.993000000
H     5.478000000    -2.642000000     4.400000000
C     4.643000000    -3.191000000     2.627000000
O     5.940000000    -3.161000000     2.097000000
C     6.058000000    -3.236000000     0.699000000
C     5.983000000    -2.097000000    -0.057000000
H     5.944000000    -1.163000000     0.497000000
C     6.111000000    -4.502000000     0.074000000
H     6.210000000    -5.391000000     0.693000000
C     6.190000000    -4.593000000    -1.348000000
H     6.237000000    -5.558000000    -1.846000000
C     6.052000000    -3.414000000    -2.088000000
H     6.055000000    -3.470000000    -3.174000000
C     6.136000000    -2.199000000    -1.446000000
O     6.055000000    -1.030000000    -2.182000000
C     5.053000000    -0.579000000    -2.964000000
C     5.258000000     0.478000000    -3.831000000
H     6.175000000     1.048000000    -3.705000000
C     4.212000000     0.998000000    -4.596000000
O     4.364000000     2.213000000    -5.244000000
C     3.289000000     3.136000000    -5.392000000
C     2.632000000     3.750000000    -4.333000000
H     3.010000000     3.501000000    -3.344000000
C     2.935000000     3.476000000    -6.696000000
H     3.584000000     2.962000000    -7.401000000
C     1.969000000     4.432000000    -6.928000000
H     1.588000000     4.594000000    -7.933000000
C     1.260000000     4.948000000    -5.859000000
H     0.535000000     5.717000000    -6.112000000
C     1.670000000     4.735000000    -4.564000000
O     1.078000000     5.532000000    -3.595000000
C    -0.055000000     5.323000000    -2.824000000
C    -0.279000000     6.117000000    -1.727000000
H     0.500000000     6.816000000    -1.433000000
C    -1.330000000     5.886000000    -0.935000000
O    -1.463000000     6.651000000     0.191000000
C    -2.221000000     6.392000000     1.300000000
C    -3.600000000     6.599000000     1.231000000
H    -4.042000000     6.727000000     0.246000000
C    -4.352000000     6.360000000     2.346000000
H    -5.436000000     6.422000000     2.298000000
C    -3.797000000     5.777000000     3.448000000
H    -4.404000000     5.375000000     4.255000000
C    -2.417000000     5.597000000     3.604000000
C    -1.670000000     5.925000000     2.450000000
H    -0.594000000     5.779000000     2.479000000
C     1.958000000     1.240000000    -0.960000000
H     2.379000000     1.886000000    -1.726000000
C     0.733000000     0.643000000    -1.164000000
H     0.231000000     0.699000000    -2.127000000
C     0.206000000    -0.150000000    -0.198000000
C    -1.059000000    -0.920000000    -0.469000000
H    -1.942000000    -0.404000000    -0.852000000
H    -0.767000000    -1.672000000    -1.204000000
H    -1.319000000    -1.590000000     0.353000000
C     0.789000000    -0.211000000     1.076000000
H     0.227000000    -0.685000000     1.877000000
C     1.995000000     0.392000000     1.283000000
H     2.540000000     0.346000000     2.222000000
C     2.541000000     1.198000000     0.312000000
C     3.924000000     1.873000000     0.475000000
O     4.520000000     1.748000000     1.570000000
O     4.134000000     2.939000000    -0.111000000
O     0.824000000     3.403000000     1.810000000
H     0.681000000     2.584000000     1.334000000
H     1.372000000     3.154000000     2.554000000
O     2.652000000     2.720000000     3.774000000
H     2.687000000     2.193000000     4.573000000
H     3.297000000     2.315000000     3.193000000
O     2.439000000     5.480000000     3.565000000
H     2.470000000     4.542000000     3.757000000
H     1.743000000     5.817000000     4.130000000
O     8.270000000     5.577000000    -0.142000000
H     7.693000000     6.320000000     0.036000000
H     9.055000000     5.753000000     0.377000000
O     6.298000000     0.292000000     3.047000000
H     5.600000000     0.845000000     2.697000000
H     6.054000000     0.150000000     3.962000000
O     5.646000000     3.839000000     2.461000000
H     5.535000000     2.994000000     2.025000000
H     5.489000000     4.486000000     1.773000000
O     4.823000000     7.119000000    -2.340000000
H     5.291000000     6.521000000    -2.923000000
H     3.948000000     7.189000000    -2.721000000
O     2.025000000     6.036000000     0.869000000
H     2.135000000     6.107000000     1.817000000
H     1.620000000     5.179000000     0.738000000
O     3.402000000     8.225000000     3.413000000
H     3.504000000     7.275000000     3.469000000
H     2.613000000     8.351000000     2.886000000
O     8.718000000     4.946000000    -3.177000000
H     7.864000000     4.602000000    -3.438000000
H     8.787000000     4.736000000    -2.246000000
O     5.833000000     4.217000000    -4.041000000
H     5.949000000     3.780000000    -3.197000000
H     5.391000000     3.568000000    -4.588000000
O     7.166000000     1.359000000    -0.237000000
H     6.475000000     1.338000000     0.425000000
H     6.847000000     1.975000000    -0.896000000
O     5.050000000     5.920000000     0.371000000
H     4.904000000     6.725000000    -0.126000000
H     4.454000000     5.284000000    -0.024000000
O     6.345000000     3.459000000    -1.487000000
H     5.536000000     3.324000000    -0.993000000
H     6.795000000     4.165000000    -1.023000000
O     6.674000000     6.475000000     3.353000000
H     6.442000000     5.609000000     3.016000000
H     7.575000000     6.379000000     3.661000000
O     5.512000000    -0.523000000     5.742000000
H     6.418000000    -0.719000000     5.979000000
H     5.001000000    -0.792000000     6.505000000
O     9.635000000     1.673000000    -1.528000000
H     9.478000000     1.217000000    -2.355000000
H     8.889000000     1.435000000    -0.978000000
O     8.394000000    -0.474000000     1.338000000
H     8.068000000     0.137000000     0.677000000
H     7.765000000    -0.408000000     2.056000000
O     7.353000000     3.308000000     4.589000000
H     6.768000000     3.394000000     3.837000000
H     8.113000000     3.845000000     4.364000000
