218
-1438.92479
C     3.430000000    -3.565000000     1.662000000
H     3.512000000    -3.890000000     0.628000000
C     2.176000000    -3.435000000     2.267000000
C     2.131000000    -2.880000000     3.598000000
H     1.170000000    -2.529000000     3.966000000
C     0.903000000    -3.855000000     1.431000000
O     1.226000000    -4.793000000     0.345000000
H     0.528000000    -2.919000000     0.993000000
O    -0.097000000    -4.316000000     2.324000000
C    -1.353000000    -3.741000000     1.995000000
C    -1.973000000    -2.964000000     2.924000000
H    -1.486000000    -2.700000000     3.859000000
C    -3.237000000    -2.478000000     2.722000000
O    -3.647000000    -1.378000000     3.490000000
C    -3.885000000    -2.764000000     1.518000000
C    -5.219000000    -2.013000000     1.103000000
H    -5.799000000    -2.662000000     0.445000000
C    -4.874000000    -0.669000000     0.338000000
C    -4.809000000    -0.608000000    -1.035000000
H    -5.033000000    -1.537000000    -1.555000000
H    -5.765000000    -1.692000000     1.992000000
C    -3.373000000    -3.690000000     0.664000000
H    -3.893000000    -4.027000000    -0.229000000
C    -2.117000000    -4.222000000     0.862000000
C    -1.558000000    -5.253000000    -0.187000000
H    -2.308000000    -5.775000000    -0.786000000
H    -1.034000000    -6.053000000     0.340000000
C    -0.616000000    -4.609000000    -1.176000000
C    -1.149000000    -4.136000000    -2.354000000
H    -2.229000000    -4.127000000    -2.484000000
C     0.797000000    -4.532000000    -0.924000000
C     1.572000000    -3.881000000    -1.867000000
H     2.648000000    -3.809000000    -1.726000000
C     1.005000000    -3.371000000    -3.013000000
O     1.773000000    -2.671000000    -3.925000000
C     1.654000000    -1.254000000    -3.905000000
C     2.994000000    -0.608000000    -3.802000000
C     3.005000000     0.736000000    -4.212000000
H     2.108000000     1.193000000    -4.620000000
C     4.039000000    -1.175000000    -3.132000000
H     3.878000000    -2.125000000    -2.630000000
O     0.871000000    -0.853000000    -5.016000000
H     1.034000000    -1.093000000    -3.010000000
C    -0.374000000    -3.462000000    -3.279000000
C    -1.021000000    -3.040000000    -4.540000000
H    -1.940000000    -3.616000000    -4.665000000
H    -0.502000000    -3.110000000    -5.498000000
C    -1.344000000    -1.559000000    -4.422000000
C    -2.680000000    -1.245000000    -4.000000000
H    -3.306000000    -2.081000000    -3.700000000
C    -0.423000000    -0.568000000    -4.740000000
C    -0.721000000     0.760000000    -4.484000000
H     0.076000000     1.497000000    -4.453000000
C    -1.985000000     1.090000000    -3.948000000
O    -2.250000000     2.406000000    -3.533000000
C    -2.203000000     2.732000000    -2.111000000
C    -1.483000000     4.082000000    -1.910000000
C    -0.494000000     4.538000000    -2.752000000
H    -0.268000000     3.871000000    -3.580000000
C    -1.787000000     4.919000000    -0.780000000
H    -2.484000000     4.431000000    -0.105000000
O    -3.557000000     2.782000000    -1.644000000
H    -1.574000000     1.996000000    -1.589000000
C    -2.969000000     0.105000000    -3.810000000
C    -4.399000000     0.501000000    -3.295000000
H    -5.136000000    -0.218000000    -3.660000000
H    -4.595000000     1.466000000    -3.767000000
C    -4.506000000     0.533000000    -1.784000000
C    -4.042000000     1.674000000    -1.079000000
C    -4.070000000     1.640000000     0.301000000
H    -3.657000000     2.513000000     0.800000000
C    -4.445000000     0.497000000     1.019000000
O    -4.245000000     0.626000000     2.394000000
C    -3.140000000    -0.117000000     3.019000000
H    -2.414000000    -0.304000000     2.213000000
C    -2.569000000     0.848000000     4.139000000
C    -1.788000000     0.341000000     5.221000000
H    -1.680000000    -0.733000000     5.348000000
C    -2.572000000     2.226000000     4.018000000
H    -3.116000000     2.602000000     3.155000000
C    -1.891000000     3.081000000     4.874000000
O    -1.803000000     4.468000000     4.756000000
C    -1.176000000     2.549000000     5.927000000
H    -0.678000000     3.142000000     6.690000000
C    -1.110000000     1.204000000     6.066000000
O    -0.239000000     0.738000000     7.022000000
C     0.300000000    -0.520000000     7.010000000
C     1.377000000    -0.902000000     6.188000000
H     1.858000000    -0.176000000     5.538000000
C    -0.183000000    -1.441000000     7.954000000
H    -0.891000000    -1.017000000     8.662000000
C     0.371000000    -2.726000000     8.087000000
H    -0.033000000    -3.367000000     8.866000000
C     1.458000000    -3.037000000     7.201000000
H     1.935000000    -4.010000000     7.280000000
C     2.001000000    -2.084000000     6.310000000
O     3.149000000    -2.373000000     5.667000000
C     3.261000000    -2.911000000     4.406000000
C     4.473000000    -3.095000000     3.827000000
H     5.380000000    -2.967000000     4.412000000
C     4.506000000    -3.373000000     2.441000000
O     5.764000000    -3.437000000     1.857000000
C     6.032000000    -3.362000000     0.519000000
C     6.122000000    -2.201000000    -0.185000000
H     5.880000000    -1.247000000     0.277000000
C     6.372000000    -4.540000000    -0.170000000
H     6.465000000    -5.460000000     0.401000000
C     6.642000000    -4.475000000    -1.516000000
H     7.071000000    -5.379000000    -1.940000000
C     6.645000000    -3.313000000    -2.277000000
H     6.866000000    -3.261000000    -3.340000000
C     6.387000000    -2.129000000    -1.585000000
O     6.276000000    -0.881000000    -2.232000000
C     5.204000000    -0.441000000    -2.963000000
C     5.208000000     0.877000000    -3.438000000
H     6.089000000     1.487000000    -3.257000000
C     4.157000000     1.504000000    -4.061000000
O     4.303000000     2.811000000    -4.540000000
C     3.339000000     3.686000000    -4.974000000
C     2.718000000     4.495000000    -3.981000000
H     2.922000000     4.350000000    -2.923000000
C     2.896000000     3.678000000    -6.280000000
H     3.354000000     3.024000000    -7.018000000
C     1.758000000     4.498000000    -6.579000000
H     1.285000000     4.553000000    -7.556000000
C     1.301000000     5.453000000    -5.621000000
H     0.590000000     6.249000000    -5.828000000
C     1.805000000     5.503000000    -4.371000000
O     1.122000000     6.291000000    -3.372000000
C     0.082000000     5.812000000    -2.610000000
C    -0.210000000     6.567000000    -1.525000000
H     0.290000000     7.525000000    -1.404000000
C    -1.176000000     6.152000000    -0.546000000
O    -1.335000000     6.857000000     0.579000000
C    -2.135000000     6.388000000     1.597000000
C    -3.475000000     6.755000000     1.734000000
H    -3.840000000     7.404000000     0.942000000
C    -4.312000000     6.207000000     2.747000000
H    -5.369000000     6.460000000     2.764000000
C    -3.694000000     5.374000000     3.774000000
H    -4.230000000     4.977000000     4.633000000
C    -2.383000000     5.130000000     3.667000000
C    -1.628000000     5.510000000     2.570000000
H    -0.547000000     5.422000000     2.492000000
C     2.865000000     1.583000000    -0.517000000
H     3.382000000     2.211000000    -1.238000000
C     1.526000000     1.331000000    -0.630000000
H     0.933000000     1.891000000    -1.349000000
C     0.906000000     0.387000000     0.209000000
C    -0.588000000     0.051000000     0.083000000
H    -1.203000000     0.942000000     0.226000000
H    -0.824000000    -0.336000000    -0.910000000
H    -0.834000000    -0.735000000     0.800000000
C     1.639000000    -0.099000000     1.251000000
H     1.119000000    -0.596000000     2.066000000
C     3.005000000     0.126000000     1.395000000
H     3.580000000    -0.308000000     2.209000000
C     3.585000000     1.028000000     0.567000000
C     5.028000000     1.407000000     0.713000000
O     5.594000000     1.249000000     1.767000000
O     5.675000000     1.916000000    -0.145000000
O     1.075000000     3.364000000     2.195000000
H     1.264000000     2.472000000     1.904000000
H     1.495000000     3.430000000     3.052000000
O     2.653000000     4.566000000     4.347000000
H     3.198000000     4.201000000     5.043000000
H     2.941000000     4.113000000     3.555000000
O     8.960000000     5.677000000    -0.905000000
H     9.166000000     6.609000000    -0.984000000
H     8.158000000     5.653000000    -0.383000000
O     6.885000000    -0.312000000     3.596000000
H     6.385000000     0.107000000     2.896000000
H     7.004000000    -1.214000000     3.299000000
O     4.178000000     3.498000000     2.379000000
H     4.709000000     2.723000000     2.192000000
H     4.755000000     4.236000000     2.183000000
O     1.978000000     6.108000000     1.458000000
H     1.588000000     5.327000000     1.852000000
H     2.913000000     5.910000000     1.408000000
O     5.556000000     6.285000000    -3.246000000
H     5.684000000     7.107000000    -2.772000000
H     5.297000000     5.658000000    -2.571000000
O     7.997000000     0.740000000    -0.510000000
H     7.306000000     1.316000000    -0.183000000
H     7.641000000     0.374000000    -1.320000000
O     9.490000000    -1.967000000    -1.280000000
H     8.930000000    -1.626000000    -0.583000000
H    10.381000000    -1.764000000    -0.993000000
O     4.955000000     6.312000000     0.645000000
H     5.786000000     6.180000000     0.191000000
H     4.831000000     7.261000000     0.649000000
O     5.341000000     3.266000000     4.993000000
H     5.396000000     2.410000000     5.418000000
H     5.878000000     3.177000000     4.206000000
O     5.215000000     4.286000000    -1.208000000
H     5.275000000     3.347000000    -1.037000000
H     4.793000000     4.645000000    -0.428000000
O     8.790000000     0.831000000     5.386000000
H     8.583000000     1.765000000     5.371000000
H     8.152000000     0.435000000     4.792000000
O     5.687000000     6.573000000     4.294000000
H     4.960000000     6.104000000     3.884000000
H     6.440000000     6.381000000     3.736000000
O     5.309000000     0.406000000     6.036000000
H     6.064000000     0.119000000     5.522000000
H     5.180000000    -0.289000000     6.681000000
O     9.365000000     2.787000000     0.896000000
H     9.243000000     2.041000000     0.309000000
H     9.206000000     3.553000000     0.345000000
O     8.902000000    -0.844000000     1.379000000
H     8.570000000    -0.149000000     0.811000000
H     9.797000000    -0.578000000     1.586000000
O     7.399000000     2.818000000     3.019000000
H     6.737000000     2.283000000     2.581000000
H     8.227000000     2.544000000     2.625000000
O     8.162000000     5.678000000     3.035000000
H     9.094000000     5.699000000     2.819000000
H     7.928000000     4.751000000     2.993000000
