218
-1482.79563
C     2.144000000    -3.725000000     2.977000000
H     2.410000000    -4.354000000     2.131000000
C     0.872000000    -3.284000000     3.059000000
C     0.560000000    -2.424000000     4.093000000
H    -0.484000000    -2.132000000     4.163000000
C    -0.255000000    -3.660000000     2.060000000
O     0.016000000    -4.830000000     1.310000000
H    -0.382000000    -2.811000000     1.373000000
O    -1.519000000    -3.870000000     2.658000000
C    -2.553000000    -3.283000000     1.931000000
C    -3.153000000    -2.226000000     2.530000000
H    -2.779000000    -1.935000000     3.509000000
C    -4.122000000    -1.452000000     1.903000000
O    -4.474000000    -0.186000000     2.396000000
C    -4.551000000    -1.884000000     0.668000000
C    -5.554000000    -1.113000000    -0.191000000
H    -5.895000000    -1.804000000    -0.964000000
C    -4.926000000     0.009000000    -1.007000000
C    -4.622000000    -0.211000000    -2.350000000
H    -4.798000000    -1.166000000    -2.838000000
H    -6.410000000    -0.703000000     0.348000000
C    -4.097000000    -3.103000000     0.172000000
H    -4.563000000    -3.559000000    -0.698000000
C    -3.087000000    -3.807000000     0.744000000
C    -2.550000000    -5.055000000     0.117000000
H    -3.274000000    -5.666000000    -0.426000000
H    -2.299000000    -5.764000000     0.909000000
C    -1.304000000    -4.724000000    -0.696000000
C    -1.379000000    -4.482000000    -2.085000000
H    -2.337000000    -4.650000000    -2.571000000
C    -0.090000000    -4.744000000    -0.030000000
C     0.962000000    -4.240000000    -0.676000000
H     1.930000000    -4.150000000    -0.189000000
C     0.873000000    -3.753000000    -1.970000000
O     2.054000000    -3.267000000    -2.498000000
C     2.197000000    -1.886000000    -2.679000000
C     3.506000000    -1.265000000    -2.189000000
C     3.906000000    -0.006000000    -2.558000000
H     3.193000000     0.566000000    -3.145000000
C     4.444000000    -2.094000000    -1.554000000
H     4.263000000    -3.165000000    -1.550000000
O     2.001000000    -1.558000000    -4.115000000
H     1.414000000    -1.457000000    -2.036000000
C    -0.239000000    -3.991000000    -2.719000000
C    -0.205000000    -3.595000000    -4.202000000
H    -0.986000000    -4.186000000    -4.685000000
H     0.684000000    -3.893000000    -4.761000000
C    -0.410000000    -2.081000000    -4.411000000
C    -1.735000000    -1.554000000    -4.521000000
H    -2.663000000    -2.114000000    -4.594000000
C     0.713000000    -1.162000000    -4.395000000
C     0.431000000     0.158000000    -4.602000000
H     1.269000000     0.846000000    -4.524000000
C    -0.870000000     0.660000000    -4.501000000
O    -1.023000000     1.983000000    -4.426000000
C    -1.151000000     2.526000000    -3.143000000
C    -0.264000000     3.699000000    -2.889000000
C     0.939000000     3.922000000    -3.649000000
H     1.270000000     3.182000000    -4.373000000
C    -0.599000000     4.689000000    -1.968000000
H    -1.413000000     4.465000000    -1.283000000
O    -2.571000000     2.829000000    -2.894000000
H    -0.832000000     1.796000000    -2.384000000
C    -1.965000000    -0.178000000    -4.580000000
C    -3.369000000     0.375000000    -4.502000000
H    -4.038000000    -0.408000000    -4.865000000
H    -3.469000000     1.216000000    -5.192000000
C    -3.844000000     0.754000000    -3.099000000
C    -3.435000000     1.892000000    -2.443000000
C    -3.750000000     2.064000000    -1.098000000
H    -3.303000000     2.892000000    -0.554000000
C    -4.466000000     1.166000000    -0.393000000
O    -4.691000000     1.516000000     0.905000000
C    -3.774000000     0.965000000     1.896000000
H    -2.882000000     0.594000000     1.370000000
C    -3.367000000     1.934000000     3.007000000
C    -3.207000000     1.474000000     4.339000000
H    -3.455000000     0.474000000     4.686000000
C    -2.945000000     3.170000000     2.610000000
H    -2.981000000     3.426000000     1.554000000
C    -2.295000000     4.036000000     3.478000000
O    -1.805000000     5.308000000     3.169000000
C    -2.231000000     3.633000000     4.877000000
H    -1.791000000     4.339000000     5.577000000
C    -2.668000000     2.351000000     5.285000000
O    -2.521000000     1.917000000     6.563000000
C    -2.015000000     0.645000000     6.811000000
C    -0.699000000     0.375000000     6.554000000
H    -0.053000000     1.097000000     6.060000000
C    -2.852000000    -0.363000000     7.292000000
H    -3.894000000    -0.217000000     7.566000000
C    -2.358000000    -1.671000000     7.357000000
H    -2.994000000    -2.436000000     7.797000000
C    -1.003000000    -1.982000000     7.007000000
H    -0.627000000    -2.999000000     7.074000000
C    -0.156000000    -0.927000000     6.585000000
O     1.118000000    -1.151000000     6.112000000
C     1.436000000    -2.023000000     5.095000000
C     2.764000000    -2.407000000     4.868000000
H     3.450000000    -2.142000000     5.668000000
C     3.148000000    -3.205000000     3.793000000
O     4.486000000    -3.592000000     3.770000000
C     5.274000000    -3.894000000     2.621000000
C     5.383000000    -3.013000000     1.531000000
H     4.888000000    -2.049000000     1.451000000
C     6.103000000    -4.998000000     2.767000000
H     6.007000000    -5.706000000     3.586000000
C     7.012000000    -5.296000000     1.738000000
H     7.734000000    -6.108000000     1.768000000
C     7.145000000    -4.485000000     0.651000000
H     7.892000000    -4.773000000    -0.085000000
C     6.380000000    -3.305000000     0.594000000
O     6.569000000    -2.463000000    -0.476000000
C     5.684000000    -1.628000000    -1.129000000
C     5.991000000    -0.334000000    -1.483000000
H     6.973000000     0.057000000    -1.228000000
C     5.092000000     0.524000000    -2.165000000
O     5.530000000     1.778000000    -2.411000000
C     5.045000000     2.470000000    -3.499000000
C     4.392000000     3.639000000    -3.274000000
H     4.249000000     3.980000000    -2.252000000
C     5.164000000     1.839000000    -4.731000000
H     5.732000000     0.930000000    -4.909000000
C     4.569000000     2.491000000    -5.748000000
H     4.757000000     2.116000000    -6.751000000
C     3.898000000     3.709000000    -5.651000000
H     3.346000000     4.122000000    -6.491000000
C     3.743000000     4.201000000    -4.365000000
O     2.874000000     5.232000000    -4.186000000
C     1.690000000     5.095000000    -3.471000000
C     1.199000000     6.144000000    -2.677000000
H     1.653000000     7.131000000    -2.680000000
C     0.039000000     5.944000000    -1.933000000
O    -0.318000000     6.956000000    -1.055000000
C    -1.307000000     6.848000000    -0.078000000
C    -2.493000000     7.600000000    -0.192000000
H    -2.651000000     8.232000000    -1.062000000
C    -3.453000000     7.478000000     0.815000000
H    -4.425000000     7.963000000     0.777000000
C    -3.299000000     6.516000000     1.823000000
H    -4.008000000     6.447000000     2.644000000
C    -2.073000000     5.905000000     1.953000000
C    -1.060000000     6.008000000     1.011000000
H    -0.099000000     5.508000000     1.100000000
C     1.683000000     2.178000000    -0.103000000
H     2.339000000     2.914000000    -0.560000000
C     1.050000000     1.148000000    -0.832000000
H     1.156000000     1.174000000    -1.914000000
C     0.143000000     0.302000000    -0.199000000
C    -0.792000000    -0.548000000    -1.007000000
H    -1.763000000    -0.054000000    -0.932000000
H    -0.501000000    -0.634000000    -2.056000000
H    -0.749000000    -1.570000000    -0.624000000
C    -0.062000000     0.439000000     1.202000000
H    -0.801000000    -0.235000000     1.628000000
C     0.634000000     1.387000000     1.934000000
H     0.404000000     1.440000000     2.995000000
C     1.484000000     2.317000000     1.240000000
C     2.139000000     3.381000000     2.052000000
O     1.905000000     3.370000000     3.233000000
O     2.703000000     4.300000000     1.502000000
O     1.261000000     6.107000000     4.016000000
H     1.631000000     5.228000000     3.944000000
H     0.763000000     6.224000000     3.207000000
O     5.138000000     6.776000000    -1.410000000
H     4.266000000     6.872000000    -1.026000000
H     5.086000000     7.246000000    -2.242000000
O     7.275000000     2.343000000     0.558000000
H     6.885000000     1.710000000     1.161000000
H     6.598000000     2.495000000    -0.101000000
O    -0.190000000     6.898000000     6.383000000
H    -0.261000000     6.144000000     6.968000000
H     0.275000000     6.564000000     5.616000000
O     0.682000000     3.409000000     5.424000000
H     1.227000000     2.723000000     5.808000000
H     0.898000000     3.393000000     4.491000000
O     2.478000000     0.933000000     4.574000000
H     2.127000000     0.969000000     5.464000000
H     2.299000000     1.801000000     4.211000000
O     6.488000000     6.976000000     4.646000000
H     6.423000000     7.917000000     4.484000000
H     6.069000000     6.572000000     3.886000000
O     5.599000000     2.995000000     5.285000000
H     6.055000000     3.208000000     4.470000000
H     4.909000000     3.656000000     5.351000000
O     3.449000000    -0.306000000     1.912000000
H     3.200000000     0.002000000     2.783000000
H     2.717000000    -0.051000000     1.350000000
O     5.972000000     0.503000000     1.912000000
H     6.018000000     0.337000000     2.853000000
H     5.119000000     0.156000000     1.649000000
O     2.849000000     6.731000000     0.357000000
H     1.953000000     7.066000000     0.319000000
H     2.761000000     5.855000000     0.732000000
O     2.300000000     2.003000000     7.220000000
H     2.048000000     1.695000000     8.090000000
H     3.161000000     2.400000000     7.346000000
O     6.851000000     3.553000000     2.954000000
H     7.215000000     3.165000000     2.159000000
H     6.210000000     4.189000000     2.638000000
O     3.599000000     4.835000000     5.539000000
H     3.212000000     4.622000000     4.690000000
H     2.901000000     5.285000000     6.014000000
O    -0.215000000     4.361000000     7.764000000
H     0.213000000     3.863000000     7.068000000
H     0.196000000     4.049000000     8.570000000
O     2.167000000     8.828000000     4.868000000
H     1.861000000     8.049000000     4.403000000
H     1.425000000     9.432000000     4.837000000
O     1.164000000     8.648000000     1.559000000
H     0.618000000     8.959000000     2.281000000
H     0.942000000     9.222000000     0.826000000
O     5.299000000     0.341000000     4.582000000
H     5.622000000     1.210000000     4.822000000
H     4.346000000     0.416000000     4.638000000
O     5.406000000     5.734000000     2.243000000
H     5.516000000     5.995000000     1.329000000
H     4.616000000     5.193000000     2.244000000
