218
-1459.68505
C     2.032000000    -3.374000000     3.509000000
H     2.314000000    -4.227000000     2.898000000
C     0.764000000    -2.778000000     3.457000000
C     0.464000000    -1.710000000     4.325000000
H    -0.486000000    -1.215000000     4.146000000
C    -0.241000000    -3.301000000     2.476000000
O     0.183000000    -4.541000000     1.791000000
H    -0.343000000    -2.441000000     1.799000000
O    -1.576000000    -3.496000000     2.998000000
C    -2.583000000    -2.882000000     2.235000000
C    -3.043000000    -1.622000000     2.700000000
H    -2.601000000    -1.233000000     3.614000000
C    -3.973000000    -0.961000000     1.904000000
O    -4.270000000     0.328000000     2.308000000
C    -4.473000000    -1.528000000     0.714000000
C    -5.496000000    -0.849000000    -0.259000000
H    -5.942000000    -1.577000000    -0.941000000
C    -4.666000000     0.126000000    -1.081000000
C    -4.311000000    -0.294000000    -2.378000000
H    -4.520000000    -1.303000000    -2.723000000
H    -6.322000000    -0.458000000     0.338000000
C    -3.976000000    -2.782000000     0.327000000
H    -4.177000000    -3.199000000    -0.657000000
C    -3.088000000    -3.499000000     1.080000000
C    -2.589000000    -4.820000000     0.631000000
H    -3.227000000    -5.354000000    -0.076000000
H    -2.479000000    -5.548000000     1.438000000
C    -1.257000000    -4.598000000    -0.148000000
C    -1.391000000    -4.458000000    -1.549000000
H    -2.369000000    -4.219000000    -1.959000000
C     0.023000000    -4.674000000     0.424000000
C     1.219000000    -4.694000000    -0.346000000
H     2.230000000    -4.754000000     0.048000000
C     0.962000000    -4.546000000    -1.685000000
O     2.014000000    -4.141000000    -2.442000000
C     2.194000000    -2.748000000    -2.565000000
C     3.595000000    -2.173000000    -2.052000000
C     4.029000000    -0.866000000    -2.397000000
H     3.427000000    -0.300000000    -3.104000000
C     4.417000000    -2.963000000    -1.236000000
H     4.190000000    -3.962000000    -0.873000000
O     1.858000000    -2.361000000    -3.918000000
H     1.497000000    -2.298000000    -1.844000000
C    -0.292000000    -4.452000000    -2.348000000
C    -0.533000000    -4.127000000    -3.842000000
H    -1.486000000    -4.587000000    -4.109000000
H     0.214000000    -4.633000000    -4.458000000
C    -0.540000000    -2.638000000    -4.181000000
C    -1.768000000    -2.052000000    -4.337000000
H    -2.630000000    -2.714000000    -4.308000000
C     0.645000000    -1.893000000    -4.227000000
C     0.473000000    -0.550000000    -4.552000000
H     1.337000000     0.103000000    -4.648000000
C    -0.775000000     0.097000000    -4.658000000
O    -0.714000000     1.461000000    -4.911000000
C    -1.057000000     2.266000000    -3.698000000
C    -0.172000000     3.368000000    -3.378000000
C     1.140000000     3.390000000    -3.933000000
H     1.505000000     2.591000000    -4.573000000
C    -0.589000000     4.415000000    -2.596000000
H    -1.576000000     4.378000000    -2.144000000
O    -2.497000000     2.589000000    -3.634000000
H    -0.805000000     1.596000000    -2.863000000
C    -1.912000000    -0.688000000    -4.557000000
C    -3.205000000     0.000000000    -4.623000000
H    -3.911000000    -0.708000000    -5.062000000
H    -3.155000000     0.779000000    -5.386000000
C    -3.589000000     0.513000000    -3.261000000
C    -3.213000000     1.807000000    -2.797000000
C    -3.729000000     2.262000000    -1.591000000
H    -3.599000000     3.285000000    -1.247000000
C    -4.346000000     1.427000000    -0.685000000
O    -4.615000000     1.869000000     0.599000000
C    -3.657000000     1.398000000     1.575000000
H    -2.723000000     1.125000000     1.062000000
C    -3.329000000     2.566000000     2.461000000
C    -3.033000000     2.327000000     3.790000000
H    -3.349000000     1.382000000     4.226000000
C    -3.256000000     3.831000000     1.910000000
H    -3.457000000     4.085000000     0.872000000
C    -2.880000000     4.850000000     2.766000000
O    -2.869000000     6.149000000     2.404000000
C    -2.651000000     4.601000000     4.132000000
H    -2.577000000     5.431000000     4.830000000
C    -2.661000000     3.355000000     4.641000000
O    -2.344000000     3.028000000     5.910000000
C    -2.012000000     1.713000000     6.321000000
C    -0.721000000     1.315000000     6.121000000
H     0.007000000     1.875000000     5.539000000
C    -2.806000000     0.841000000     7.091000000
H    -3.836000000     1.051000000     7.364000000
C    -2.376000000    -0.375000000     7.539000000
H    -3.096000000    -0.999000000     8.062000000
C    -1.061000000    -0.798000000     7.287000000
H    -0.680000000    -1.789000000     7.520000000
C    -0.277000000     0.054000000     6.546000000
O     0.995000000    -0.303000000     6.200000000
C     1.394000000    -1.227000000     5.242000000
C     2.666000000    -1.785000000     5.192000000
H     3.427000000    -1.341000000     5.829000000
C     3.029000000    -2.805000000     4.294000000
O     4.235000000    -3.248000000     4.433000000
C     4.914000000    -3.961000000     3.404000000
C     5.188000000    -3.279000000     2.206000000
H     4.735000000    -2.325000000     1.951000000
C     5.680000000    -5.102000000     3.751000000
H     5.494000000    -5.674000000     4.657000000
C     6.592000000    -5.610000000     2.826000000
H     7.062000000    -6.580000000     2.969000000
C     6.816000000    -4.946000000     1.609000000
H     7.476000000    -5.449000000     0.906000000
C     6.163000000    -3.763000000     1.311000000
O     6.441000000    -3.107000000     0.129000000
C     5.480000000    -2.412000000    -0.558000000
C     5.802000000    -1.071000000    -0.834000000
H     6.602000000    -0.701000000    -0.199000000
C     5.103000000    -0.283000000    -1.766000000
O     5.456000000     1.020000000    -2.024000000
C     5.146000000     1.685000000    -3.200000000
C     4.444000000     2.881000000    -3.175000000
H     4.070000000     3.165000000    -2.194000000
C     5.607000000     1.120000000    -4.315000000
H     6.131000000     0.169000000    -4.358000000
C     5.335000000     1.760000000    -5.526000000
H     5.666000000     1.360000000    -6.481000000
C     4.587000000     2.971000000    -5.554000000
H     4.267000000     3.364000000    -6.516000000
C     4.112000000     3.477000000    -4.348000000
O     3.228000000     4.580000000    -4.344000000
C     1.960000000     4.498000000    -3.731000000
C     1.568000000     5.576000000    -2.908000000
H     2.142000000     6.455000000    -2.627000000
C     0.308000000     5.500000000    -2.270000000
O     0.014000000     6.575000000    -1.468000000
C    -1.233000000     6.733000000    -0.903000000
C    -2.254000000     7.473000000    -1.500000000
H    -2.066000000     7.781000000    -2.525000000
C    -3.469000000     7.662000000    -0.911000000
H    -4.224000000     8.312000000    -1.345000000
C    -3.640000000     7.237000000     0.427000000
H    -4.610000000     7.358000000     0.902000000
C    -2.629000000     6.576000000     1.113000000
C    -1.424000000     6.245000000     0.402000000
H    -0.736000000     5.580000000     0.917000000
C     1.057000000     2.213000000     0.271000000
H     1.590000000     3.037000000    -0.198000000
C     0.585000000     1.172000000    -0.544000000
H     0.675000000     1.156000000    -1.627000000
C    -0.280000000     0.228000000     0.033000000
C    -0.948000000    -0.872000000    -0.782000000
H    -1.095000000    -0.513000000    -1.803000000
H    -0.472000000    -1.848000000    -0.673000000
H    -1.954000000    -1.088000000    -0.417000000
C    -0.475000000     0.291000000     1.440000000
H    -1.072000000    -0.484000000     1.915000000
C     0.072000000     1.332000000     2.223000000
H    -0.170000000     1.430000000     3.278000000
C     0.809000000     2.324000000     1.644000000
C     1.177000000     3.540000000     2.501000000
O     1.014000000     3.480000000     3.689000000
O     1.771000000     4.437000000     1.940000000
O     1.842000000     6.983000000     1.711000000
H     1.127000000     7.149000000     2.326000000
H     2.011000000     6.044000000     1.789000000
O     1.550000000     4.705000000     8.117000000
H     1.158000000     5.041000000     7.311000000
H     0.947000000     4.023000000     8.411000000
O     4.228000000     4.106000000     6.248000000
H     4.492000000     3.187000000     6.183000000
H     3.867000000     4.312000000     5.386000000
O     0.089000000     4.546000000     5.771000000
H    -0.699000000     4.105000000     6.089000000
H     0.338000000     4.056000000     4.987000000
O     3.090000000     1.866000000     4.416000000
H     3.179000000     1.756000000     3.470000000
H     2.376000000     2.495000000     4.518000000
O     6.337000000     2.990000000     3.577000000
H     5.432000000     3.300000000     3.622000000
H     6.766000000     3.592000000     2.969000000
O     1.295000000     8.788000000     6.914000000
H     0.521000000     8.681000000     7.467000000
H     0.944000000     8.925000000     6.034000000
O     4.016000000     8.465000000     2.566000000
H     3.255000000     7.936000000     2.329000000
H     3.647000000     9.299000000     2.858000000
O     6.605000000     7.170000000     1.964000000
H     6.774000000     7.499000000     1.081000000
H     5.695000000     7.408000000     2.139000000
O     3.626000000     1.035000000     1.016000000
H     2.839000000     0.677000000     0.605000000
H     3.857000000     1.789000000     0.473000000
O     3.978000000     3.920000000     0.450000000
H     4.531000000     4.684000000     0.289000000
H     3.223000000     4.266000000     0.926000000
O     0.104000000     9.816000000     0.185000000
H    -0.314000000     8.984000000     0.406000000
H     0.839000000     9.884000000     0.795000000
O     4.349000000     1.193000000     6.791000000
H     4.253000000     0.288000000     7.088000000
H     3.792000000     1.250000000     6.014000000
O     5.751000000     0.210000000     2.976000000
H     5.175000000     0.128000000     2.216000000
H     5.658000000     1.122000000     3.250000000
O     7.768000000     4.637000000     1.898000000
H     8.075000000     4.637000000     0.991000000
H     7.320000000     5.477000000     1.999000000
O     3.761000000     5.113000000     3.863000000
H     3.983000000     5.979000000     3.522000000
H     3.066000000     4.799000000     3.284000000
O     3.966000000     7.106000000    -0.495000000
H     3.234000000     6.956000000     0.103000000
H     3.667000000     7.811000000    -1.068000000
O     1.926000000     1.422000000     8.475000000
H     2.241000000     0.523000000     8.384000000
H     2.482000000     1.931000000     7.885000000
O    -0.224000000     6.978000000     4.015000000
H     0.019000000     6.124000000     4.374000000
H    -0.936000000     7.280000000     4.580000000
