218
-1488.80157
C     2.040000000    -3.383000000     3.390000000
H     1.945000000    -3.972000000     2.481000000
C     0.917000000    -2.735000000     3.943000000
C     1.089000000    -1.948000000     5.051000000
H     0.182000000    -1.540000000     5.488000000
C    -0.388000000    -2.856000000     3.263000000
O    -0.572000000    -4.197000000     2.722000000
H    -0.344000000    -2.194000000     2.385000000
O    -1.473000000    -2.419000000     4.076000000
C    -2.415000000    -1.552000000     3.529000000
C    -2.372000000    -0.235000000     3.922000000
H    -1.637000000     0.126000000     4.637000000
C    -3.166000000     0.674000000     3.248000000
O    -2.941000000     1.950000000     3.425000000
C    -4.130000000     0.258000000     2.308000000
C    -5.149000000     1.198000000     1.669000000
H    -6.109000000     0.686000000     1.578000000
C    -4.586000000     1.836000000     0.380000000
C    -4.903000000     1.201000000    -0.810000000
H    -5.624000000     0.388000000    -0.788000000
H    -5.428000000     1.955000000     2.405000000
C    -4.145000000    -1.096000000     1.970000000
H    -4.802000000    -1.424000000     1.168000000
C    -3.353000000    -1.995000000     2.595000000
C    -3.469000000    -3.443000000     2.231000000
H    -4.486000000    -3.702000000     1.928000000
H    -3.306000000    -4.015000000     3.147000000
C    -2.430000000    -3.920000000     1.144000000
C    -2.891000000    -4.031000000    -0.136000000
H    -3.952000000    -3.884000000    -0.318000000
C    -1.097000000    -4.263000000     1.448000000
C    -0.216000000    -4.624000000     0.388000000
H     0.820000000    -4.795000000     0.670000000
C    -0.661000000    -4.502000000    -0.915000000
O     0.246000000    -4.549000000    -1.946000000
C     0.637000000    -3.337000000    -2.516000000
C     2.127000000    -3.232000000    -2.752000000
C     2.665000000    -2.363000000    -3.676000000
H     2.050000000    -1.695000000    -4.274000000
C     2.981000000    -4.021000000    -1.933000000
H     2.599000000    -4.674000000    -1.153000000
O    -0.066000000    -3.107000000    -3.729000000
H     0.399000000    -2.499000000    -1.844000000
C    -2.034000000    -4.241000000    -1.199000000
C    -2.463000000    -4.172000000    -2.624000000
H    -3.505000000    -4.488000000    -2.704000000
H    -1.812000000    -4.828000000    -3.207000000
C    -2.359000000    -2.743000000    -3.163000000
C    -3.427000000    -1.796000000    -3.009000000
H    -4.365000000    -2.133000000    -2.576000000
C    -1.148000000    -2.245000000    -3.676000000
C    -1.090000000    -1.044000000    -4.273000000
H    -0.156000000    -0.774000000    -4.759000000
C    -2.100000000    -0.080000000    -4.020000000
O    -1.834000000     1.187000000    -4.565000000
C    -1.472000000     2.234000000    -3.608000000
C    -0.407000000     3.179000000    -4.118000000
C     0.582000000     2.712000000    -4.985000000
H     0.378000000     1.727000000    -5.397000000
C    -0.183000000     4.380000000    -3.510000000
H    -0.859000000     4.754000000    -2.745000000
O    -2.620000000     2.947000000    -3.173000000
H    -0.978000000     1.754000000    -2.751000000
C    -3.296000000    -0.441000000    -3.419000000
C    -4.382000000     0.556000000    -3.180000000
H    -5.324000000     0.016000000    -3.068000000
H    -4.455000000     1.124000000    -4.109000000
C    -4.137000000     1.443000000    -1.970000000
C    -3.348000000     2.588000000    -1.996000000
C    -3.040000000     3.245000000    -0.809000000
H    -2.472000000     4.171000000    -0.769000000
C    -3.619000000     2.867000000     0.403000000
O    -3.117000000     3.476000000     1.588000000
C    -2.258000000     2.629000000     2.390000000
H    -1.834000000     1.839000000     1.754000000
C    -1.034000000     3.406000000     2.815000000
C    -0.426000000     3.160000000     4.060000000
H    -0.894000000     2.443000000     4.731000000
C    -0.507000000     4.406000000     2.045000000
H    -1.028000000     4.593000000     1.110000000
C     0.516000000     5.203000000     2.465000000
O     0.978000000     6.227000000     1.693000000
C     1.147000000     4.975000000     3.693000000
H     1.897000000     5.718000000     3.952000000
C     0.702000000     3.941000000     4.471000000
O     1.206000000     3.841000000     5.731000000
C     1.161000000     2.644000000     6.417000000
C     2.039000000     1.544000000     6.209000000
H     2.910000000     1.715000000     5.582000000
C     0.099000000     2.443000000     7.243000000
H    -0.481000000     3.323000000     7.508000000
C    -0.148000000     1.184000000     7.829000000
H    -1.036000000     1.128000000     8.453000000
C     0.643000000     0.082000000     7.522000000
H     0.330000000    -0.882000000     7.915000000
C     1.732000000     0.283000000     6.716000000
O     2.536000000    -0.803000000     6.579000000
C     2.333000000    -1.630000000     5.511000000
C     3.440000000    -2.276000000     4.931000000
H     4.423000000    -1.986000000     5.292000000
C     3.338000000    -3.062000000     3.803000000
O     4.472000000    -3.455000000     3.188000000
C     4.453000000    -4.492000000     2.257000000
C     4.884000000    -4.174000000     1.019000000
H     5.064000000    -3.138000000     0.742000000
C     4.221000000    -5.815000000     2.607000000
H     4.046000000    -6.074000000     3.648000000
C     4.265000000    -6.754000000     1.572000000
H     4.000000000    -7.764000000     1.871000000
C     4.540000000    -6.407000000     0.218000000
H     4.395000000    -7.093000000    -0.612000000
C     4.871000000    -5.106000000    -0.043000000
O     5.224000000    -4.669000000    -1.330000000
C     4.385000000    -3.954000000    -2.106000000
C     4.883000000    -3.149000000    -3.116000000
H     5.957000000    -3.119000000    -3.281000000
C     4.020000000    -2.327000000    -3.900000000
O     4.546000000    -1.439000000    -4.823000000
C     3.742000000    -0.648000000    -5.550000000
C     3.567000000     0.709000000    -5.268000000
H     4.114000000     1.136000000    -4.430000000
C     3.032000000    -1.147000000    -6.655000000
H     3.287000000    -2.157000000    -6.964000000
C     2.113000000    -0.397000000    -7.384000000
H     1.373000000    -0.815000000    -8.061000000
C     2.119000000     0.997000000    -7.173000000
H     1.328000000     1.517000000    -7.706000000
C     2.861000000     1.550000000    -6.111000000
O     2.870000000     2.854000000    -5.698000000
C     1.829000000     3.445000000    -5.080000000
C     1.962000000     4.668000000    -4.486000000
H     2.966000000     5.083000000    -4.457000000
C     0.986000000     5.180000000    -3.648000000
O     1.088000000     6.464000000    -3.067000000
C     0.440000000     6.758000000    -1.889000000
C    -0.821000000     7.405000000    -1.889000000
H    -1.291000000     7.649000000    -2.838000000
C    -1.449000000     7.697000000    -0.689000000
H    -2.438000000     8.143000000    -0.752000000
C    -0.960000000     7.219000000     0.513000000
H    -1.460000000     7.405000000     1.460000000
C     0.314000000     6.555000000     0.495000000
C     0.973000000     6.323000000    -0.716000000
H     1.954000000     5.855000000    -0.690000000
C     1.920000000     1.686000000    -0.908000000
H     2.435000000     2.141000000    -1.750000000
C     0.879000000     0.758000000    -1.058000000
H     0.580000000     0.380000000    -2.032000000
C     0.211000000     0.275000000     0.026000000
C    -0.854000000    -0.807000000    -0.139000000
H    -1.283000000    -0.998000000    -1.125000000
H    -0.323000000    -1.711000000     0.164000000
H    -1.649000000    -0.454000000     0.521000000
C     0.555000000     0.721000000     1.362000000
H    -0.018000000     0.389000000     2.225000000
C     1.613000000     1.663000000     1.492000000
H     1.870000000     1.963000000     2.505000000
C     2.290000000     2.155000000     0.375000000
C     3.478000000     3.051000000     0.546000000
O     3.967000000     3.328000000     1.596000000
O     4.091000000     3.349000000    -0.487000000
O     7.747000000     0.955000000     5.084000000
H     6.926000000     1.434000000     5.195000000
H     8.398000000     1.486000000     5.541000000
O     8.257000000     4.094000000     2.314000000
H     7.815000000     3.746000000     1.539000000
H     9.137000000     4.314000000     2.009000000
O     2.410000000     9.302000000     1.608000000
H     2.195000000     8.405000000     1.351000000
H     2.528000000     9.257000000     2.557000000
O     4.573000000     5.076000000     3.471000000
H     3.798000000     5.281000000     3.994000000
H     4.264000000     4.444000000     2.822000000
O     5.032000000     6.850000000    -4.055000000
H     5.936000000     7.040000000    -4.307000000
H     5.090000000     6.042000000    -3.545000000
O     4.724000000     0.878000000     2.758000000
H     4.582000000     1.751000000     2.392000000
H     3.858000000     0.598000000     3.054000000
O     7.238000000    -0.201000000     2.631000000
H     7.662000000     0.324000000     3.309000000
H     6.347000000     0.147000000     2.581000000
O     6.991000000     0.384000000    -0.321000000
H     7.093000000    -0.465000000    -0.750000000
H     6.996000000     0.182000000     0.615000000
O     7.686000000     2.637000000    -4.140000000
H     6.975000000     2.051000000    -3.879000000
H     7.246000000     3.373000000    -4.565000000
O     3.463000000     8.569000000    -1.985000000
H     3.557000000     7.892000000    -1.315000000
H     3.704000000     8.133000000    -2.802000000
O     9.235000000     1.887000000    -1.312000000
H     9.062000000     1.930000000    -2.252000000
H     8.571000000     1.286000000    -0.973000000
O     6.455000000     3.503000000     4.503000000
H     5.738000000     4.072000000     4.222000000
H     6.886000000     3.242000000     3.690000000
O     5.230000000     4.806000000    -2.375000000
H     4.765000000     4.396000000    -1.646000000
H     5.633000000     4.075000000    -2.844000000
O     5.581000000     1.644000000    -2.151000000
H     6.077000000     1.265000000    -1.425000000
H     4.941000000     2.218000000    -1.730000000
O     5.444000000     3.925000000    -5.047000000
H     5.744000000     4.502000000    -5.749000000
H     4.692000000     3.466000000    -5.419000000
O     7.964000000     5.717000000    -1.499000000
H     7.174000000     6.204000000    -1.267000000
H     7.769000000     4.813000000    -1.253000000
O     6.819000000     6.494000000     3.091000000
H     7.486000000     5.811000000     3.030000000
H     5.993000000     6.016000000     3.169000000
O     4.153000000     6.429000000    -0.400000000
H     3.972000000     5.772000000     0.272000000
H     4.377000000     5.920000000    -1.179000000
O     6.826000000     3.249000000    -0.001000000
H     5.889000000     3.352000000     0.166000000
H     6.932000000     2.319000000    -0.200000000
