218
-1462.58193
C     1.120000000    -2.397000000     4.622000000
H     1.186000000    -3.387000000     4.179000000
C    -0.073000000    -1.668000000     4.369000000
C    -0.172000000    -0.361000000     4.871000000
H    -1.050000000     0.270000000     4.758000000
C    -1.109000000    -2.226000000     3.355000000
O    -1.063000000    -3.674000000     3.189000000
H    -0.949000000    -1.684000000     2.411000000
O    -2.467000000    -1.862000000     3.692000000
C    -3.323000000    -1.313000000     2.713000000
C    -3.484000000     0.013000000     2.700000000
H    -3.064000000     0.686000000     3.443000000
C    -4.282000000     0.548000000     1.704000000
O    -4.454000000     1.929000000     1.637000000
C    -4.743000000    -0.226000000     0.685000000
C    -5.498000000     0.381000000    -0.550000000
H    -6.082000000    -0.421000000    -1.008000000
C    -4.494000000     0.855000000    -1.573000000
C    -4.119000000     0.021000000    -2.554000000
H    -4.510000000    -0.993000000    -2.532000000
H    -6.208000000     1.170000000    -0.295000000
C    -4.633000000    -1.588000000     0.730000000
H    -5.180000000    -2.236000000     0.049000000
C    -4.000000000    -2.200000000     1.808000000
C    -3.758000000    -3.702000000     1.809000000
H    -4.549000000    -4.185000000     1.232000000
H    -3.954000000    -3.948000000     2.854000000
C    -2.356000000    -4.123000000     1.230000000
C    -2.354000000    -4.343000000    -0.143000000
H    -3.315000000    -4.327000000    -0.651000000
C    -1.137000000    -4.177000000     1.932000000
C     0.019000000    -4.471000000     1.270000000
H     0.954000000    -4.326000000     1.805000000
C    -0.019000000    -4.564000000    -0.128000000
O     1.232000000    -4.731000000    -0.696000000
C     1.771000000    -3.651000000    -1.452000000
C     3.249000000    -3.461000000    -1.256000000
C     4.040000000    -2.741000000    -2.192000000
H     3.611000000    -2.361000000    -3.116000000
C     3.819000000    -3.839000000    -0.085000000
H     3.213000000    -4.307000000     0.686000000
O     1.523000000    -3.868000000    -2.854000000
H     1.394000000    -2.670000000    -1.129000000
C    -1.209000000    -4.511000000    -0.819000000
C    -1.174000000    -4.862000000    -2.255000000
H    -2.123000000    -5.342000000    -2.503000000
H    -0.328000000    -5.521000000    -2.462000000
C    -0.874000000    -3.586000000    -3.031000000
C    -1.918000000    -2.845000000    -3.586000000
H    -2.950000000    -3.103000000    -3.358000000
C     0.439000000    -3.188000000    -3.360000000
C     0.626000000    -2.027000000    -4.025000000
H     1.642000000    -1.650000000    -4.100000000
C    -0.416000000    -1.229000000    -4.410000000
O    -0.159000000     0.048000000    -4.903000000
C    -0.387000000     1.184000000    -4.044000000
C     0.754000000     2.136000000    -4.112000000
C     2.007000000     1.762000000    -4.529000000
H     2.192000000     0.806000000    -5.012000000
C     0.719000000     3.470000000    -3.596000000
H    -0.191000000     3.730000000    -3.060000000
O    -1.660000000     1.881000000    -4.359000000
H    -0.465000000     0.828000000    -3.006000000
C    -1.704000000    -1.630000000    -4.193000000
C    -2.885000000    -0.775000000    -4.664000000
H    -3.803000000    -1.359000000    -4.766000000
H    -2.783000000    -0.297000000    -5.640000000
C    -3.312000000     0.334000000    -3.665000000
C    -2.720000000     1.603000000    -3.568000000
C    -3.035000000     2.467000000    -2.505000000
H    -2.565000000     3.446000000    -2.472000000
C    -4.025000000     2.133000000    -1.566000000
O    -4.151000000     3.058000000    -0.506000000
C    -3.544000000     2.707000000     0.774000000
H    -2.645000000     2.117000000     0.542000000
C    -3.080000000     3.886000000     1.487000000
C    -2.991000000     3.917000000     2.888000000
H    -3.467000000     3.163000000     3.509000000
C    -2.463000000     4.876000000     0.759000000
H    -2.522000000     4.817000000    -0.325000000
C    -1.742000000     5.908000000     1.414000000
O    -1.044000000     6.887000000     0.631000000
C    -1.790000000     5.989000000     2.789000000
H    -1.219000000     6.774000000     3.278000000
C    -2.379000000     4.978000000     3.546000000
O    -2.389000000     4.983000000     4.987000000
C    -2.047000000     3.881000000     5.721000000
C    -0.756000000     3.307000000     5.511000000
H    -0.145000000     3.709000000     4.707000000
C    -2.913000000     3.295000000     6.618000000
H    -3.814000000     3.864000000     6.834000000
C    -2.496000000     2.210000000     7.402000000
H    -3.135000000     1.710000000     8.125000000
C    -1.291000000     1.566000000     7.101000000
H    -1.089000000     0.634000000     7.623000000
C    -0.392000000     2.158000000     6.181000000
O     0.784000000     1.527000000     5.890000000
C     0.881000000     0.214000000     5.511000000
C     2.146000000    -0.456000000     5.646000000
H     3.030000000     0.058000000     6.014000000
C     2.234000000    -1.831000000     5.256000000
O     3.343000000    -2.591000000     5.420000000
C     3.840000000    -3.517000000     4.554000000
C     4.264000000    -3.232000000     3.276000000
H     4.145000000    -2.227000000     2.879000000
C     4.302000000    -4.686000000     5.138000000
H     4.119000000    -4.791000000     6.204000000
C     4.972000000    -5.672000000     4.510000000
H     5.269000000    -6.630000000     4.929000000
C     5.402000000    -5.336000000     3.224000000
H     6.124000000    -6.008000000     2.767000000
C     5.061000000    -4.178000000     2.595000000
O     5.708000000    -3.902000000     1.454000000
C     5.114000000    -3.477000000     0.277000000
C     5.906000000    -2.785000000    -0.667000000
H     6.874000000    -2.389000000    -0.372000000
C     5.370000000    -2.399000000    -1.913000000
O     6.088000000    -1.496000000    -2.644000000
C     5.630000000    -0.902000000    -3.826000000
C     5.307000000     0.410000000    -3.879000000
H     5.440000000     1.000000000    -2.975000000
C     5.537000000    -1.659000000    -4.959000000
H     5.641000000    -2.741000000    -4.946000000
C     5.020000000    -1.092000000    -6.126000000
H     4.753000000    -1.661000000    -7.013000000
C     4.792000000     0.301000000    -6.201000000
H     4.597000000     0.701000000    -7.193000000
C     4.866000000     1.081000000    -5.040000000
O     4.364000000     2.327000000    -5.015000000
C     3.093000000     2.675000000    -4.578000000
C     2.991000000     3.982000000    -4.154000000
H     3.893000000     4.588000000    -4.160000000
C     1.812000000     4.357000000    -3.606000000
O     1.650000000     5.675000000    -3.150000000
C     0.419000000     6.091000000    -2.670000000
C    -0.599000000     6.489000000    -3.539000000
H    -0.373000000     6.667000000    -4.587000000
C    -1.779000000     6.962000000    -2.956000000
H    -2.588000000     7.160000000    -3.655000000
C    -1.944000000     7.005000000    -1.553000000
H    -2.852000000     7.428000000    -1.132000000
C    -0.866000000     6.707000000    -0.714000000
C     0.259000000     6.229000000    -1.294000000
H     1.064000000     5.897000000    -0.644000000
C     1.979000000     1.637000000    -0.855000000
H     2.696000000     1.937000000    -1.616000000
C     1.072000000     0.636000000    -1.176000000
H     1.091000000     0.077000000    -2.108000000
C     0.068000000     0.332000000    -0.277000000
C    -0.956000000    -0.725000000    -0.584000000
H    -2.034000000    -0.568000000    -0.506000000
H    -0.940000000    -0.975000000    -1.647000000
H    -0.649000000    -1.594000000     0.003000000
C    -0.040000000     1.110000000     0.925000000
H    -0.890000000     0.966000000     1.587000000
C     0.916000000     2.035000000     1.292000000
H     0.922000000     2.519000000     2.266000000
C     1.918000000     2.298000000     0.373000000
C     2.925000000     3.346000000     0.567000000
O     2.919000000     3.815000000     1.717000000
O     3.535000000     3.878000000    -0.297000000
O     6.140000000     7.111000000    -3.273000000
H     6.918000000     7.633000000    -3.080000000
H     5.703000000     7.011000000    -2.427000000
O     6.042000000     0.397000000     0.195000000
H     5.169000000     0.132000000     0.485000000
H     6.630000000     0.072000000     0.876000000
O     3.749000000     5.593000000     4.602000000
H     3.373000000     4.725000000     4.747000000
H     4.098000000     5.557000000     3.711000000
O     5.238000000     0.310000000     3.849000000
H     5.881000000     0.851000000     3.390000000
H     5.463000000     0.404000000     4.774000000
O     7.192000000     6.144000000     2.503000000
H     7.658000000     6.375000000     1.699000000
H     6.319000000     5.888000000     2.207000000
O     7.180000000     2.480000000     3.005000000
H     7.818000000     2.495000000     2.291000000
H     6.897000000     3.391000000     3.092000000
O     3.226000000     8.397000000    -2.061000000
H     3.498000000     7.502000000    -2.264000000
H     3.236000000     8.848000000    -2.906000000
O     3.627000000     2.742000000     4.029000000
H     3.220000000     3.014000000     3.207000000
H     4.071000000     1.921000000     3.816000000
O     5.940000000     2.557000000    -1.406000000
H     5.102000000     2.985000000    -1.229000000
H     6.029000000     1.908000000    -0.708000000
O     3.586000000    -0.285000000     1.489000000
H     2.780000000     0.202000000     1.660000000
H     4.060000000    -0.263000000     2.320000000
O     8.207000000     0.257000000    -1.580000000
H     8.673000000    -0.427000000    -1.100000000
H     7.358000000     0.320000000    -1.144000000
O     7.977000000     6.784000000    -0.080000000
H     7.207000000     6.487000000    -0.566000000
H     8.277000000     7.558000000    -0.556000000
O     7.367000000     4.547000000    -2.702000000
H     6.661000000     4.015000000    -2.333000000
H     6.916000000     5.223000000    -3.207000000
O     5.134000000     6.168000000    -0.774000000
H     5.156000000     6.637000000     0.060000000
H     4.469000000     5.491000000    -0.651000000
O     1.468000000     5.912000000     2.560000000
H     1.491000000     6.361000000     1.715000000
H     1.834000000     5.046000000     2.382000000
O     2.954000000     2.941000000     6.726000000
H     3.344000000     2.862000000     5.855000000
H     2.011000000     2.882000000     6.573000000
O     1.168000000     6.895000000     5.421000000
H     1.379000000     7.826000000     5.350000000
H     1.257000000     6.561000000     4.529000000
O     4.483000000     5.920000000     2.002000000
H     3.863000000     5.238000000     1.744000000
H     4.064000000     6.738000000     1.735000000
O     3.663000000     8.056000000     0.647000000
H     3.359000000     8.166000000    -0.254000000
H     3.742000000     8.948000000     0.983000000
