218
-1419.31815
C     0.000000000    -2.604000000     4.847000000
H     0.193000000    -3.604000000     4.469000000
C    -0.975000000    -1.722000000     4.221000000
C    -1.065000000    -0.436000000     4.722000000
H    -1.737000000     0.263000000     4.229000000
C    -1.910000000    -2.059000000     3.040000000
O    -1.904000000    -3.555000000     2.896000000
H    -1.369000000    -1.528000000     2.243000000
O    -3.283000000    -1.593000000     3.242000000
C    -3.919000000    -1.053000000     2.122000000
C    -4.117000000     0.348000000     1.967000000
H    -3.642000000     0.979000000     2.714000000
C    -4.631000000     0.915000000     0.793000000
O    -4.550000000     2.253000000     0.712000000
C    -4.972000000     0.094000000    -0.250000000
C    -5.329000000     0.679000000    -1.599000000
H    -6.004000000     0.082000000    -2.216000000
C    -4.116000000     1.017000000    -2.478000000
C    -3.733000000     0.211000000    -3.539000000
H    -4.312000000    -0.650000000    -3.863000000
H    -5.918000000     1.594000000    -1.502000000
C    -4.871000000    -1.353000000    -0.130000000
H    -4.946000000    -1.993000000    -1.006000000
C    -4.272000000    -1.925000000     1.030000000
C    -4.265000000    -3.427000000     1.130000000
H    -4.937000000    -3.879000000     0.397000000
H    -4.503000000    -3.756000000     2.143000000
C    -2.875000000    -3.914000000     0.776000000
C    -2.631000000    -4.207000000    -0.544000000
H    -3.426000000    -4.111000000    -1.279000000
C    -1.776000000    -3.931000000     1.660000000
C    -0.500000000    -4.261000000     1.220000000
H     0.345000000    -4.374000000     1.895000000
C    -0.336000000    -4.682000000    -0.110000000
O     0.914000000    -4.929000000    -0.566000000
C     1.628000000    -3.813000000    -1.131000000
C     3.064000000    -3.810000000    -0.605000000
C     4.057000000    -3.237000000    -1.408000000
H     3.909000000    -3.183000000    -2.484000000
C     3.337000000    -3.959000000     0.824000000
H     2.539000000    -4.117000000     1.545000000
O     1.535000000    -3.972000000    -2.603000000
H     1.147000000    -2.889000000    -0.777000000
C    -1.374000000    -4.526000000    -0.994000000
C    -1.156000000    -4.713000000    -2.540000000
H    -2.092000000    -5.126000000    -2.920000000
H    -0.490000000    -5.551000000    -2.754000000
C    -0.706000000    -3.509000000    -3.281000000
C    -1.576000000    -2.624000000    -4.005000000
H    -2.622000000    -2.916000000    -4.038000000
C     0.605000000    -3.206000000    -3.206000000
C     1.001000000    -1.977000000    -3.727000000
H     2.008000000    -1.588000000    -3.601000000
C     0.236000000    -1.133000000    -4.475000000
O     0.808000000     0.050000000    -4.834000000
C     0.456000000     1.239000000    -4.158000000
C     1.624000000     2.169000000    -4.089000000
C     2.803000000     1.582000000    -3.741000000
H     2.920000000     0.502000000    -3.691000000
C     1.396000000     3.522000000    -3.815000000
H     0.420000000     3.965000000    -3.996000000
O    -0.721000000     1.882000000    -4.724000000
H     0.071000000     1.012000000    -3.153000000
C    -1.151000000    -1.464000000    -4.649000000
C    -2.113000000    -0.572000000    -5.408000000
H    -2.914000000    -1.063000000    -5.966000000
H    -1.622000000     0.045000000    -6.164000000
C    -2.583000000     0.454000000    -4.330000000
C    -1.825000000     1.570000000    -4.035000000
C    -2.165000000     2.460000000    -2.995000000
H    -1.493000000     3.236000000    -2.637000000
C    -3.330000000     2.176000000    -2.285000000
O    -3.601000000     3.135000000    -1.278000000
C    -3.346000000     2.766000000     0.052000000
H    -2.624000000     1.953000000    -0.116000000
C    -2.681000000     3.899000000     0.836000000
C    -2.981000000     4.101000000     2.182000000
H    -3.680000000     3.436000000     2.682000000
C    -1.792000000     4.747000000     0.212000000
H    -1.546000000     4.649000000    -0.842000000
C    -1.106000000     5.712000000     0.913000000
O    -0.202000000     6.627000000     0.375000000
C    -1.392000000     5.818000000     2.266000000
H    -0.829000000     6.464000000     2.934000000
C    -2.336000000     5.013000000     2.916000000
O    -2.559000000     5.202000000     4.272000000
C    -2.491000000     4.064000000     5.114000000
C    -1.360000000     3.330000000     5.347000000
H    -0.435000000     3.556000000     4.822000000
C    -3.680000000     3.695000000     5.744000000
H    -4.627000000     4.226000000     5.687000000
C    -3.725000000     2.567000000     6.621000000
H    -4.632000000     2.287000000     7.151000000
C    -2.591000000     1.778000000     6.743000000
H    -2.634000000     0.875000000     7.347000000
C    -1.395000000     2.151000000     6.087000000
O    -0.362000000     1.310000000     6.143000000
C    -0.298000000    -0.046000000     5.801000000
C     0.734000000    -0.855000000     6.269000000
H     1.549000000    -0.536000000     6.913000000
C     0.892000000    -2.145000000     5.797000000
O     1.895000000    -3.021000000     6.226000000
C     2.656000000    -3.913000000     5.469000000
C     3.376000000    -3.485000000     4.354000000
H     3.397000000    -2.413000000     4.177000000
C     2.697000000    -5.275000000     5.809000000
H     2.087000000    -5.576000000     6.656000000
C     3.457000000    -6.260000000     5.121000000
H     3.576000000    -7.294000000     5.433000000
C     4.111000000    -5.825000000     3.949000000
H     4.754000000    -6.562000000     3.474000000
C     4.122000000    -4.427000000     3.617000000
O     4.918000000    -3.990000000     2.563000000
C     4.621000000    -3.810000000     1.267000000
C     5.620000000    -3.329000000     0.457000000
H     6.619000000    -3.128000000     0.836000000
C     5.353000000    -3.080000000    -0.894000000
O     6.412000000    -2.662000000    -1.708000000
C     6.215000000    -1.603000000    -2.622000000
C     5.657000000    -0.383000000    -2.269000000
H     5.321000000    -0.137000000    -1.265000000
C     6.756000000    -1.775000000    -3.904000000
H     7.320000000    -2.658000000    -4.194000000
C     6.508000000    -0.788000000    -4.878000000
H     6.814000000    -0.894000000    -5.916000000
C     5.895000000     0.438000000    -4.562000000
H     5.751000000     1.235000000    -5.287000000
C     5.514000000     0.625000000    -3.193000000
O     4.997000000     1.826000000    -2.775000000
C     3.912000000     2.374000000    -3.391000000
C     3.806000000     3.800000000    -3.363000000
H     4.679000000     4.390000000    -3.097000000
C     2.520000000     4.329000000    -3.573000000
O     2.358000000     5.633000000    -3.590000000
C     1.321000000     6.307000000    -2.947000000
C     0.570000000     7.234000000    -3.649000000
H     0.751000000     7.373000000    -4.712000000
C    -0.389000000     7.969000000    -3.042000000
H    -0.950000000     8.702000000    -3.617000000
C    -0.705000000     7.766000000    -1.711000000
H    -1.554000000     8.308000000    -1.303000000
C     0.033000000     6.826000000    -0.985000000
C     1.049000000     6.167000000    -1.566000000
H     1.583000000     5.440000000    -0.959000000
C     2.676000000     2.496000000     0.009000000
H     3.546000000     2.576000000    -0.637000000
C     1.833000000     1.430000000    -0.069000000
H     1.990000000     0.618000000    -0.775000000
C     0.755000000     1.262000000     0.787000000
C    -0.201000000     0.114000000     0.732000000
H     0.384000000    -0.751000000     1.053000000
H    -1.087000000     0.324000000     1.334000000
H    -0.480000000     0.166000000    -0.322000000
C     0.626000000     2.180000000     1.809000000
H    -0.131000000     2.031000000     2.574000000
C     1.538000000     3.213000000     1.933000000
H     1.427000000     3.974000000     2.700000000
C     2.605000000     3.343000000     1.064000000
C     3.475000000     4.552000000     1.093000000
O     3.482000000     5.369000000     1.964000000
O     4.432000000     4.633000000     0.371000000
O     5.611000000     7.498000000    -3.182000000
H     5.991000000     8.256000000    -2.738000000
H     4.749000000     7.798000000    -3.473000000
O     5.033000000     6.987000000     4.516000000
H     4.235000000     6.513000000     4.283000000
H     5.719000000     6.575000000     3.991000000
O     8.413000000     3.594000000     0.604000000
H     8.284000000     2.668000000     0.808000000
H     8.697000000     3.985000000     1.430000000
O     3.196000000     3.144000000     5.085000000
H     3.713000000     3.082000000     4.282000000
H     3.392000000     2.336000000     5.559000000
O     5.141000000     2.886000000     2.995000000
H     4.824000000     3.441000000     2.283000000
H     6.075000000     3.087000000     3.058000000
O     6.239000000    -0.583000000     2.854000000
H     5.367000000    -0.478000000     2.473000000
H     6.079000000    -0.968000000     3.716000000
O     2.078000000     9.245000000    -1.189000000
H     2.896000000     8.764000000    -1.065000000
H     1.514000000     8.639000000    -1.671000000
O     2.596000000     5.675000000     4.378000000
H     2.660000000     5.579000000     3.428000000
H     2.998000000     4.880000000     4.727000000
O     6.565000000     4.831000000    -1.337000000
H     5.799000000     4.555000000    -0.833000000
H     7.272000000     4.267000000    -1.025000000
O     3.421000000     0.343000000     2.249000000
H     3.774000000     1.111000000     2.697000000
H     2.835000000     0.702000000     1.582000000
O     4.341000000     4.757000000     7.285000000
H     4.104000000     4.553000000     6.380000000
H     3.951000000     4.051000000     7.799000000
O     6.924000000     7.539000000    -0.556000000
H     6.773000000     6.730000000    -1.046000000
H     7.842000000     7.489000000    -0.288000000
O     3.949000000     7.021000000    -0.762000000
H     4.828000000     7.100000000    -1.132000000
H     3.928000000     6.143000000    -0.380000000
O     2.930000000     7.964000000     1.714000000
H     3.515000000     8.132000000     0.975000000
H     3.108000000     7.057000000     1.959000000
O     3.853000000     9.674000000     3.568000000
H     3.898000000    10.564000000     3.218000000
H     3.482000000     9.155000000     2.855000000
O     3.204000000     8.739000000     5.880000000
H     2.863000000     7.929000000     5.500000000
H     3.633000000     9.184000000     5.149000000
O     1.237000000     3.314000000     6.946000000
H     0.439000000     2.885000000     6.638000000
H     1.769000000     3.426000000     6.158000000
O     1.137000000     7.904000000     3.680000000
H     1.425000000     7.951000000     2.768000000
H     1.478000000     7.067000000     3.996000000
O     6.282000000     5.661000000     2.436000000
H     5.600000000     5.471000000     1.793000000
H     7.092000000     5.687000000     1.926000000
