218
-1461.53461
C     1.648000000    -2.125000000     4.514000000
H     1.981000000    -2.830000000     3.758000000
C     0.336000000    -1.612000000     4.551000000
C     0.047000000    -0.616000000     5.540000000
H    -0.939000000    -0.160000000     5.563000000
C    -0.732000000    -2.141000000     3.548000000
O    -0.507000000    -3.591000000     3.361000000
H    -0.612000000    -1.677000000     2.558000000
O    -2.090000000    -1.865000000     4.133000000
C    -3.029000000    -1.412000000     3.283000000
C    -3.295000000    -0.031000000     3.198000000
H    -2.845000000     0.666000000     3.900000000
C    -4.091000000     0.488000000     2.229000000
O    -4.206000000     1.850000000     2.077000000
C    -4.673000000    -0.425000000     1.290000000
C    -5.480000000     0.164000000     0.128000000
H    -6.325000000    -0.468000000    -0.152000000
C    -4.588000000     0.558000000    -1.098000000
C    -4.496000000    -0.299000000    -2.218000000
H    -4.986000000    -1.263000000    -2.115000000
H    -5.876000000     1.098000000     0.532000000
C    -4.443000000    -1.807000000     1.426000000
H    -4.892000000    -2.505000000     0.723000000
C    -3.691000000    -2.305000000     2.428000000
C    -3.300000000    -3.713000000     2.416000000
H    -4.106000000    -4.386000000     2.116000000
H    -3.198000000    -3.978000000     3.470000000
C    -2.047000000    -3.920000000     1.580000000
C    -2.235000000    -4.307000000     0.206000000
H    -3.213000000    -4.399000000    -0.259000000
C    -0.762000000    -4.021000000     2.102000000
C     0.345000000    -4.298000000     1.312000000
H     1.344000000    -4.262000000     1.739000000
C     0.158000000    -4.531000000    -0.010000000
O     1.297000000    -4.591000000    -0.750000000
C     1.736000000    -3.308000000    -1.452000000
C     3.283000000    -3.147000000    -1.463000000
C     3.922000000    -2.481000000    -2.533000000
H     3.309000000    -2.274000000    -3.407000000
C     3.959000000    -3.301000000    -0.267000000
H     3.447000000    -3.770000000     0.569000000
O     1.232000000    -3.623000000    -2.849000000
H     1.265000000    -2.497000000    -0.878000000
C    -1.142000000    -4.506000000    -0.618000000
C    -1.276000000    -4.834000000    -2.066000000
H    -2.259000000    -5.258000000    -2.277000000
H    -0.545000000    -5.617000000    -2.279000000
C    -1.063000000    -3.532000000    -2.947000000
C    -2.248000000    -2.926000000    -3.425000000
H    -3.229000000    -3.304000000    -3.147000000
C     0.164000000    -3.006000000    -3.303000000
C     0.280000000    -1.735000000    -4.026000000
H     1.233000000    -1.261000000    -4.249000000
C    -0.970000000    -1.236000000    -4.471000000
O    -0.882000000    -0.081000000    -5.077000000
C    -0.876000000     1.071000000    -4.284000000
C     0.253000000     2.058000000    -4.563000000
C     1.293000000     1.632000000    -5.306000000
H     1.253000000     0.689000000    -5.844000000
C     0.279000000     3.264000000    -3.870000000
H    -0.460000000     3.699000000    -3.203000000
O    -2.197000000     1.683000000    -4.286000000
H    -0.759000000     0.795000000    -3.226000000
C    -2.206000000    -1.730000000    -4.167000000
C    -3.567000000    -1.000000000    -4.451000000
H    -4.359000000    -1.748000000    -4.522000000
H    -3.540000000    -0.507000000    -5.425000000
C    -3.726000000     0.019000000    -3.302000000
C    -3.088000000     1.274000000    -3.346000000
C    -3.261000000     2.204000000    -2.332000000
H    -2.827000000     3.201000000    -2.311000000
C    -3.922000000     1.804000000    -1.152000000
O    -3.987000000     2.689000000    -0.110000000
C    -3.318000000     2.373000000     1.083000000
H    -2.545000000     1.643000000     0.799000000
C    -2.521000000     3.511000000     1.620000000
C    -2.298000000     3.647000000     2.990000000
H    -2.623000000     3.029000000     3.823000000
C    -2.070000000     4.515000000     0.702000000
H    -2.279000000     4.421000000    -0.360000000
C    -1.457000000     5.652000000     1.202000000
O    -1.038000000     6.703000000     0.476000000
C    -1.335000000     5.834000000     2.608000000
H    -0.952000000     6.794000000     2.945000000
C    -1.717000000     4.780000000     3.481000000
O    -1.489000000     4.997000000     4.862000000
C    -1.279000000     3.967000000     5.763000000
C    -0.212000000     3.101000000     5.804000000
H     0.588000000     3.224000000     5.078000000
C    -2.337000000     3.820000000     6.648000000
H    -3.200000000     4.481000000     6.639000000
C    -2.300000000     2.764000000     7.553000000
H    -3.145000000     2.581000000     8.212000000
C    -1.192000000     1.932000000     7.717000000
H    -1.093000000     1.124000000     8.438000000
C    -0.152000000     2.083000000     6.771000000
O     0.928000000     1.242000000     6.845000000
C     1.096000000     0.052000000     6.178000000
C     2.399000000    -0.463000000     6.139000000
H     3.204000000     0.062000000     6.646000000
C     2.671000000    -1.543000000     5.290000000
O     3.946000000    -1.927000000     5.156000000
C     4.412000000    -2.914000000     4.316000000
C     5.020000000    -2.635000000     3.113000000
H     5.181000000    -1.627000000     2.739000000
C     4.280000000    -4.236000000     4.641000000
H     3.619000000    -4.547000000     5.445000000
C     4.751000000    -5.254000000     3.768000000
H     4.551000000    -6.271000000     4.097000000
C     5.459000000    -4.906000000     2.599000000
H     5.917000000    -5.640000000     1.940000000
C     5.460000000    -3.604000000     2.255000000
O     6.055000000    -3.227000000     1.072000000
C     5.307000000    -2.928000000    -0.122000000
C     5.943000000    -2.356000000    -1.185000000
H     6.997000000    -2.095000000    -1.139000000
C     5.246000000    -2.099000000    -2.408000000
O     5.778000000    -1.180000000    -3.284000000
C     5.218000000    -0.906000000    -4.480000000
C     4.744000000     0.378000000    -4.647000000
H     4.731000000     1.144000000    -3.876000000
C     5.049000000    -1.860000000    -5.434000000
H     5.374000000    -2.869000000    -5.194000000
C     4.410000000    -1.606000000    -6.643000000
H     4.283000000    -2.336000000    -7.437000000
C     3.820000000    -0.377000000    -6.810000000
H     3.214000000    -0.145000000    -7.682000000
C     4.059000000     0.648000000    -5.864000000
O     3.584000000     1.977000000    -5.959000000
C     2.454000000     2.493000000    -5.436000000
C     2.474000000     3.643000000    -4.707000000
H     3.381000000     4.238000000    -4.776000000
C     1.370000000     4.056000000    -3.978000000
O     1.438000000     5.249000000    -3.336000000
C     0.436000000     6.005000000    -2.765000000
C    -0.507000000     6.585000000    -3.614000000
H    -0.424000000     6.475000000    -4.692000000
C    -1.678000000     7.225000000    -3.087000000
H    -2.375000000     7.555000000    -3.853000000
C    -1.852000000     7.135000000    -1.702000000
H    -2.725000000     7.645000000    -1.303000000
C    -0.844000000     6.637000000    -0.874000000
C     0.205000000     6.003000000    -1.385000000
H     0.848000000     5.460000000    -0.697000000
C     1.428000000     2.691000000    -0.393000000
H     1.853000000     3.234000000    -1.233000000
C     0.643000000     1.653000000    -0.920000000
H     0.490000000     1.542000000    -1.990000000
C    -0.032000000     0.831000000    -0.017000000
C    -0.953000000    -0.237000000    -0.517000000
H    -1.652000000     0.188000000    -1.240000000
H    -0.403000000    -1.009000000    -1.060000000
H    -1.605000000    -0.763000000     0.184000000
C     0.099000000     1.029000000     1.298000000
H    -0.351000000     0.286000000     1.952000000
C     0.950000000     2.051000000     1.811000000
H     0.955000000     2.288000000     2.872000000
C     1.662000000     2.915000000     0.954000000
C     2.503000000     4.147000000     1.427000000
O     2.535000000     4.473000000     2.590000000
O     3.060000000     4.666000000     0.472000000
O     4.515000000     1.305000000     3.154000000
H     4.592000000     1.527000000     4.082000000
H     5.060000000     1.952000000     2.707000000
O     4.068000000     8.567000000     1.509000000
H     3.146000000     8.450000000     1.738000000
H     4.263000000     7.835000000     0.922000000
O     4.041000000     8.270000000     4.532000000
H     4.712000000     8.828000000     4.923000000
H     4.234000000     8.283000000     3.594000000
O     1.352000000     9.253000000    -0.788000000
H     2.081000000     8.674000000    -0.565000000
H     1.418000000     9.366000000    -1.737000000
O     6.063000000     0.714000000    -0.364000000
H     6.221000000     0.029000000    -1.012000000
H     5.539000000     0.286000000     0.314000000
O     1.928000000     7.178000000     2.327000000
H     2.022000000     6.230000000     2.231000000
H     1.690000000     7.303000000     3.246000000
O     3.413000000     7.013000000    -0.568000000
H     3.897000000     6.873000000    -1.382000000
H     3.357000000     6.144000000    -0.170000000
O     3.279000000    -0.382000000     1.084000000
H     2.951000000     0.430000000     0.697000000
H     3.572000000    -0.129000000     1.959000000
O     6.543000000     3.733000000    -3.486000000
H     5.827000000     3.847000000    -2.861000000
H     6.575000000     4.561000000    -3.966000000
O     4.290000000     2.575000000     5.802000000
H     5.238000000     2.700000000     5.838000000
H     4.065000000     2.203000000     6.655000000
O     4.388000000     4.173000000    -1.776000000
H     3.866000000     4.767000000    -2.315000000
H     3.966000000     4.196000000    -0.917000000
O     6.926000000     2.795000000     4.077000000
H     6.758000000     3.155000000     3.206000000
H     7.523000000     2.063000000     3.922000000
O     6.066000000     3.034000000     1.267000000
H     5.753000000     2.432000000     0.591000000
H     6.927000000     3.314000000     0.957000000
O     5.499000000     6.298000000     5.973000000
H     4.801000000     6.841000000     5.604000000
H     5.135000000     5.967000000     6.794000000
O     0.396000000     7.453000000     5.326000000
H     1.011000000     8.074000000     5.717000000
H     0.756000000     6.593000000     5.540000000
O     5.200000000     5.641000000     3.110000000
H     5.085000000     5.495000000     4.049000000
H     4.449000000     5.208000000     2.706000000
O     0.260000000     9.176000000     1.983000000
H     0.204000000     9.264000000     1.031000000
H     0.576000000     8.284000000     2.122000000
O     2.556000000     5.008000000     5.167000000
H     2.494000000     4.864000000     4.223000000
H     3.051000000     4.255000000     5.492000000
O     7.207000000     7.568000000     3.436000000
H     7.540000000     7.726000000     4.319000000
H     6.564000000     6.868000000     3.544000000
