218
-1473.68981
C     2.337000000    -1.416000000     4.761000000
H     2.839000000    -2.212000000     4.220000000
C     0.966000000    -1.209000000     4.596000000
C     0.368000000    -0.174000000     5.306000000
H    -0.715000000    -0.104000000     5.249000000
C     0.165000000    -2.138000000     3.672000000
O     0.677000000    -3.437000000     3.643000000
H     0.161000000    -1.573000000     2.729000000
O    -1.158000000    -2.351000000     4.211000000
C    -2.178000000    -2.179000000     3.331000000
C    -2.762000000    -0.967000000     3.192000000
H    -2.345000000    -0.150000000     3.775000000
C    -3.792000000    -0.811000000     2.247000000
O    -4.289000000     0.486000000     2.103000000
C    -4.231000000    -1.838000000     1.415000000
C    -5.212000000    -1.677000000     0.284000000
H    -5.698000000    -2.594000000    -0.056000000
C    -4.520000000    -1.103000000    -0.987000000
C    -4.160000000    -2.016000000    -1.927000000
H    -4.155000000    -3.073000000    -1.674000000
H    -6.060000000    -1.053000000     0.574000000
C    -3.702000000    -3.130000000     1.620000000
H    -3.988000000    -3.913000000     0.923000000
C    -2.670000000    -3.286000000     2.575000000
C    -1.946000000    -4.625000000     2.706000000
H    -2.638000000    -5.423000000     2.430000000
H    -1.693000000    -4.666000000     3.767000000
C    -0.618000000    -4.627000000     1.856000000
C    -0.637000000    -4.974000000     0.473000000
H    -1.572000000    -5.241000000    -0.012000000
C     0.613000000    -4.137000000     2.409000000
C     1.748000000    -4.075000000     1.655000000
H     2.705000000    -3.761000000     2.063000000
C     1.737000000    -4.482000000     0.303000000
O     2.760000000    -4.033000000    -0.516000000
C     2.576000000    -2.888000000    -1.285000000
C     3.664000000    -1.731000000    -1.098000000
C     3.754000000    -0.660000000    -1.998000000
H     3.165000000    -0.755000000    -2.906000000
C     4.476000000    -1.724000000     0.072000000
H     4.392000000    -2.499000000     0.829000000
O     2.354000000    -3.283000000    -2.690000000
H     1.628000000    -2.442000000    -0.951000000
C     0.545000000    -4.916000000    -0.295000000
C     0.450000000    -5.342000000    -1.777000000
H    -0.280000000    -6.118000000    -2.015000000
H     1.460000000    -5.678000000    -2.022000000
C     0.069000000    -4.148000000    -2.639000000
C    -1.250000000    -3.915000000    -2.965000000
H    -2.072000000    -4.535000000    -2.617000000
C     1.040000000    -3.255000000    -3.121000000
C     0.737000000    -2.188000000    -3.907000000
H     1.530000000    -1.528000000    -4.249000000
C    -0.586000000    -2.032000000    -4.261000000
O    -0.935000000    -0.943000000    -5.017000000
C    -1.293000000     0.236000000    -4.295000000
C    -0.659000000     1.559000000    -4.821000000
C     0.612000000     1.552000000    -5.400000000
H     1.061000000     0.569000000    -5.522000000
C    -1.258000000     2.793000000    -4.638000000
H    -2.186000000     2.809000000    -4.073000000
O    -2.722000000     0.349000000    -4.390000000
H    -0.977000000     0.070000000    -3.254000000
C    -1.536000000    -2.888000000    -3.793000000
C    -2.990000000    -2.665000000    -4.108000000
H    -3.632000000    -3.540000000    -3.986000000
H    -3.137000000    -2.262000000    -5.113000000
C    -3.556000000    -1.581000000    -3.118000000
C    -3.456000000    -0.194000000    -3.368000000
C    -3.912000000     0.718000000    -2.439000000
H    -3.844000000     1.799000000    -2.537000000
C    -4.444000000     0.226000000    -1.219000000
O    -4.786000000     1.066000000    -0.181000000
C    -3.827000000     1.218000000     0.958000000
H    -2.890000000     0.793000000     0.571000000
C    -3.527000000     2.681000000     1.380000000
C    -3.305000000     3.097000000     2.720000000
H    -3.604000000     2.471000000     3.557000000
C    -3.203000000     3.636000000     0.351000000
H    -3.578000000     3.394000000    -0.640000000
C    -2.608000000     4.864000000     0.653000000
O    -2.126000000     5.625000000    -0.422000000
C    -2.271000000     5.181000000     1.964000000
H    -1.754000000     6.132000000     2.065000000
C    -2.644000000     4.348000000     3.059000000
O    -2.257000000     4.747000000     4.319000000
C    -2.023000000     3.819000000     5.349000000
C    -0.792000000     3.250000000     5.488000000
H     0.092000000     3.509000000     4.911000000
C    -3.054000000     3.465000000     6.206000000
H    -4.015000000     3.920000000     5.980000000
C    -2.849000000     2.468000000     7.158000000
H    -3.641000000     2.011000000     7.746000000
C    -1.579000000     1.889000000     7.373000000
H    -1.504000000     1.112000000     8.129000000
C    -0.554000000     2.351000000     6.582000000
O     0.663000000     1.729000000     6.768000000
C     1.165000000     0.717000000     6.030000000
C     2.521000000     0.524000000     6.190000000
H     3.136000000     1.181000000     6.800000000
C     3.094000000    -0.574000000     5.545000000
O     4.433000000    -0.781000000     5.640000000
C     5.292000000    -1.334000000     4.752000000
C     5.276000000    -0.908000000     3.432000000
H     4.469000000    -0.272000000     3.078000000
C     6.275000000    -2.141000000     5.182000000
H     6.337000000    -2.430000000     6.228000000
C     7.266000000    -2.544000000     4.337000000
H     8.124000000    -3.079000000     4.736000000
C     7.323000000    -2.054000000     3.009000000
H     8.119000000    -2.369000000     2.339000000
C     6.308000000    -1.254000000     2.541000000
O     6.395000000    -0.797000000     1.269000000
C     5.455000000    -0.722000000     0.303000000
C     5.479000000     0.348000000    -0.616000000
H     6.222000000     1.132000000    -0.496000000
C     4.651000000     0.388000000    -1.699000000
O     4.769000000     1.388000000    -2.640000000
C     4.667000000     1.284000000    -4.004000000
C     3.744000000     2.028000000    -4.635000000
H     3.235000000     2.820000000    -4.092000000
C     5.258000000     0.211000000    -4.696000000
H     5.839000000    -0.441000000    -4.050000000
C     5.012000000    -0.020000000    -6.039000000
H     5.530000000    -0.793000000    -6.602000000
C     4.234000000     0.877000000    -6.693000000
H     4.040000000     0.810000000    -7.760000000
C     3.511000000     1.916000000    -5.991000000
O     2.472000000     2.607000000    -6.595000000
C     1.179000000     2.706000000    -6.002000000
C     0.494000000     3.909000000    -5.917000000
H     0.919000000     4.847000000    -6.265000000
C    -0.682000000     3.976000000    -5.136000000
O    -1.408000000     5.183000000    -5.113000000
C    -2.306000000     5.397000000    -4.069000000
C    -3.629000000     5.801000000    -4.262000000
H    -4.094000000     5.894000000    -5.240000000
C    -4.480000000     6.068000000    -3.190000000
H    -5.505000000     6.337000000    -3.433000000
C    -3.937000000     5.997000000    -1.962000000
H    -4.467000000     6.470000000    -1.139000000
C    -2.607000000     5.549000000    -1.702000000
C    -1.806000000     5.261000000    -2.779000000
H    -0.746000000     5.068000000    -2.638000000
C     1.452000000     2.103000000    -1.242000000
H     2.119000000     2.393000000    -2.050000000
C     0.840000000     0.851000000    -1.209000000
H     1.073000000     0.200000000    -2.048000000
C     0.028000000     0.470000000    -0.147000000
C    -0.644000000    -0.857000000    -0.120000000
H    -1.512000000    -0.711000000     0.527000000
H    -0.965000000    -1.131000000    -1.127000000
H     0.104000000    -1.546000000     0.276000000
C    -0.154000000     1.460000000     0.853000000
H    -0.886000000     1.176000000     1.605000000
C     0.426000000     2.697000000     0.754000000
H     0.097000000     3.460000000     1.455000000
C     1.194000000     3.057000000    -0.294000000
C     1.779000000     4.466000000    -0.323000000
O     1.718000000     5.239000000     0.673000000
O     2.433000000     4.747000000    -1.346000000
O     2.881000000     5.136000000     3.478000000
H     2.820000000     5.300000000     2.537000000
H     2.811000000     4.185000000     3.560000000
O     7.917000000     3.361000000     0.529000000
H     7.903000000     3.752000000    -0.345000000
H     7.007000000     3.116000000     0.697000000
O     2.920000000     8.893000000     1.672000000
H     3.377000000     8.053000000     1.716000000
H     1.991000000     8.662000000     1.697000000
O     6.042000000     6.709000000    -0.585000000
H     5.666000000     6.061000000    -1.181000000
H     6.969000000     6.477000000    -0.532000000
O    -0.426000000     8.101000000    -1.842000000
H    -0.333000000     9.050000000    -1.924000000
H    -0.172000000     7.760000000    -2.699000000
O     5.402000000     2.696000000     1.707000000
H     5.788000000     3.471000000     2.116000000
H     4.490000000     2.701000000     2.000000000
O     0.895000000     7.439000000    -4.683000000
H     1.101000000     7.662000000    -5.591000000
H     1.510000000     6.741000000    -4.462000000
O     0.307000000     7.442000000     0.808000000
H    -0.016000000     7.581000000    -0.082000000
H     0.894000000     6.690000000     0.735000000
O     2.377000000     7.433000000    -1.545000000
H     2.399000000     6.487000000    -1.401000000
H     1.463000000     7.622000000    -1.760000000
O     2.613000000     5.594000000    -3.930000000
H     3.549000000     5.579000000    -4.130000000
H     2.555000000     5.266000000    -3.032000000
O    -1.646000000     9.360000000     1.288000000
H    -1.164000000    10.186000000     1.327000000
H    -0.967000000     8.688000000     1.237000000
O     2.574000000     2.310000000     3.129000000
H     2.700000000     1.763000000     3.904000000
H     2.341000000     1.693000000     2.435000000
O     5.494000000     5.196000000    -4.569000000
H     5.696000000     4.928000000    -3.673000000
H     5.093000000     4.423000000    -4.966000000
O     2.789000000     0.591000000     1.235000000
H     1.971000000     0.840000000     0.805000000
H     3.440000000     0.599000000     0.533000000
O     4.630000000     8.491000000    -2.263000000
H     3.697000000     8.310000000    -2.148000000
H     5.067000000     7.878000000    -1.671000000
O     4.180000000     6.571000000     1.295000000
H     4.796000000     6.816000000     0.605000000
H     3.470000000     6.123000000     0.835000000
O     0.691000000     6.831000000     3.817000000
H     1.441000000     6.236000000     3.832000000
H     0.316000000     6.720000000     2.943000000
O     4.889000000     4.648000000    -1.832000000
H     5.173000000     3.749000000    -1.664000000
H     3.940000000     4.625000000    -1.713000000
O     5.815000000     6.794000000     3.357000000
H     5.208000000     7.015000000     4.064000000
H     5.270000000     6.777000000     2.570000000
