218
-1455.57860
C     1.907000000    -1.472000000     4.329000000
H     2.408000000    -2.129000000     3.623000000
C     0.503000000    -1.546000000     4.522000000
C    -0.077000000    -0.666000000     5.449000000
H    -1.158000000    -0.577000000     5.523000000
C    -0.380000000    -2.339000000     3.571000000
O     0.163000000    -3.679000000     3.472000000
H    -0.508000000    -1.889000000     2.575000000
O    -1.773000000    -2.319000000     4.043000000
C    -2.709000000    -2.168000000     3.020000000
C    -3.223000000    -0.845000000     2.879000000
H    -2.896000000    -0.046000000     3.540000000
C    -4.194000000    -0.627000000     1.910000000
O    -4.520000000     0.664000000     1.740000000
C    -4.567000000    -1.582000000     1.031000000
C    -5.591000000    -1.187000000    -0.073000000
H    -6.132000000    -2.073000000    -0.411000000
C    -4.928000000    -0.606000000    -1.307000000
C    -4.529000000    -1.446000000    -2.428000000
H    -4.809000000    -2.494000000    -2.493000000
H    -6.377000000    -0.522000000     0.291000000
C    -4.082000000    -2.898000000     1.244000000
H    -4.431000000    -3.742000000     0.654000000
C    -3.100000000    -3.198000000     2.171000000
C    -2.476000000    -4.613000000     2.262000000
H    -3.215000000    -5.305000000     1.852000000
H    -2.427000000    -4.995000000     3.283000000
C    -1.047000000    -4.654000000     1.623000000
C    -0.968000000    -4.987000000     0.251000000
H    -1.872000000    -5.222000000    -0.305000000
C     0.097000000    -4.146000000     2.186000000
C     1.308000000    -4.076000000     1.509000000
H     2.218000000    -3.819000000     2.044000000
C     1.371000000    -4.432000000     0.181000000
O     2.508000000    -4.149000000    -0.501000000
C     2.562000000    -2.887000000    -1.304000000
C     3.906000000    -2.108000000    -1.181000000
C     4.346000000    -1.264000000    -2.222000000
H     3.673000000    -1.063000000    -3.051000000
C     4.570000000    -2.127000000    -0.006000000
H     4.100000000    -2.623000000     0.839000000
O     2.286000000    -3.345000000    -2.706000000
H     1.758000000    -2.224000000    -0.954000000
C     0.203000000    -4.850000000    -0.449000000
C     0.162000000    -5.089000000    -1.940000000
H    -0.537000000    -5.909000000    -2.113000000
H     1.092000000    -5.492000000    -2.346000000
C    -0.126000000    -3.845000000    -2.701000000
C    -1.431000000    -3.415000000    -3.086000000
H    -2.330000000    -3.973000000    -2.839000000
C     0.990000000    -3.037000000    -3.100000000
C     0.785000000    -1.878000000    -3.836000000
H     1.625000000    -1.245000000    -4.110000000
C    -0.495000000    -1.538000000    -4.281000000
O    -0.727000000    -0.382000000    -5.019000000
C    -0.959000000     0.671000000    -4.129000000
C    -0.128000000     1.951000000    -4.374000000
C     1.232000000     1.920000000    -4.708000000
H     1.653000000     0.928000000    -4.850000000
C    -0.672000000     3.245000000    -4.249000000
H    -1.752000000     3.312000000    -4.141000000
O    -2.392000000     1.011000000    -4.210000000
H    -0.821000000     0.253000000    -3.121000000
C    -1.610000000    -2.300000000    -3.937000000
C    -2.989000000    -1.882000000    -4.413000000
H    -3.646000000    -2.745000000    -4.538000000
H    -3.072000000    -1.335000000    -5.354000000
C    -3.648000000    -0.980000000    -3.389000000
C    -3.316000000     0.350000000    -3.344000000
C    -3.804000000     1.190000000    -2.383000000
H    -3.463000000     2.222000000    -2.400000000
C    -4.627000000     0.766000000    -1.381000000
O    -4.877000000     1.634000000    -0.342000000
C    -3.883000000     1.496000000     0.791000000
H    -2.989000000     0.935000000     0.481000000
C    -3.355000000     2.761000000     1.463000000
C    -3.186000000     3.014000000     2.825000000
H    -3.633000000     2.292000000     3.503000000
C    -2.688000000     3.614000000     0.594000000
H    -2.480000000     3.246000000    -0.408000000
C    -2.093000000     4.783000000     1.095000000
O    -1.467000000     5.634000000     0.233000000
C    -2.050000000     5.100000000     2.514000000
H    -1.614000000     6.023000000     2.888000000
C    -2.702000000     4.210000000     3.339000000
O    -2.811000000     4.442000000     4.667000000
C    -2.585000000     3.515000000     5.682000000
C    -1.386000000     2.811000000     5.763000000
H    -0.645000000     2.937000000     4.978000000
C    -3.530000000     3.319000000     6.689000000
H    -4.498000000     3.810000000     6.623000000
C    -3.207000000     2.609000000     7.792000000
H    -3.901000000     2.481000000     8.619000000
C    -1.995000000     1.869000000     7.847000000
H    -1.776000000     1.353000000     8.778000000
C    -1.101000000     1.892000000     6.789000000
O     0.119000000     1.248000000     6.982000000
C     0.697000000     0.340000000     6.101000000
C     2.067000000     0.226000000     6.028000000
H     2.671000000     0.917000000     6.610000000
C     2.667000000    -0.680000000     5.192000000
O     4.047000000    -0.704000000     5.095000000
C     4.804000000    -1.594000000     4.400000000
C     5.411000000    -1.166000000     3.200000000
H     5.170000000    -0.192000000     2.782000000
C     4.989000000    -2.893000000     4.811000000
H     4.523000000    -3.260000000     5.722000000
C     5.836000000    -3.760000000     4.072000000
H     5.845000000    -4.836000000     4.223000000
C     6.425000000    -3.312000000     2.878000000
H     7.005000000    -3.984000000     2.251000000
C     6.209000000    -1.998000000     2.439000000
O     6.668000000    -1.685000000     1.272000000
C     5.866000000    -1.571000000     0.111000000
C     6.451000000    -0.996000000    -1.019000000
H     7.460000000    -0.591000000    -1.017000000
C     5.669000000    -0.726000000    -2.181000000
O     6.278000000    -0.127000000    -3.274000000
C     5.605000000     0.272000000    -4.387000000
C     4.667000000     1.323000000    -4.328000000
H     4.659000000     1.904000000    -3.409000000
C     5.920000000    -0.264000000    -5.641000000
H     6.658000000    -1.062000000    -5.657000000
C     5.122000000     0.020000000    -6.699000000
H     5.364000000    -0.472000000    -7.638000000
C     4.323000000     1.151000000    -6.682000000
H     3.863000000     1.533000000    -7.590000000
C     4.018000000     1.784000000    -5.470000000
O     3.319000000     2.955000000    -5.345000000
C     1.993000000     3.055000000    -4.962000000
C     1.425000000     4.307000000    -4.937000000
H     1.946000000     5.210000000    -5.244000000
C     0.096000000     4.385000000    -4.524000000
O    -0.373000000     5.662000000    -4.411000000
C    -1.252000000     6.054000000    -3.469000000
C    -2.522000000     6.548000000    -3.756000000
H    -2.841000000     6.453000000    -4.791000000
C    -3.450000000     6.723000000    -2.734000000
H    -4.463000000     7.038000000    -2.970000000
C    -3.068000000     6.480000000    -1.383000000
H    -3.802000000     6.485000000    -0.580000000
C    -1.809000000     6.069000000    -1.079000000
C    -0.869000000     5.842000000    -2.128000000
H     0.168000000     5.539000000    -2.009000000
C     1.406000000     1.994000000    -0.848000000
H     2.081000000     2.431000000    -1.579000000
C     0.804000000     0.757000000    -1.067000000
H     1.202000000     0.254000000    -1.944000000
C    -0.139000000     0.153000000    -0.219000000
C    -0.950000000    -1.065000000    -0.626000000
H    -1.750000000    -1.321000000     0.072000000
H    -1.505000000    -0.855000000    -1.543000000
H    -0.323000000    -1.956000000    -0.707000000
C    -0.470000000     0.922000000     0.915000000
H    -1.186000000     0.541000000     1.639000000
C     0.189000000     2.152000000     1.232000000
H    -0.118000000     2.628000000     2.160000000
C     1.164000000     2.694000000     0.371000000
C     1.764000000     4.112000000     0.530000000
O     1.586000000     4.761000000     1.548000000
O     2.599000000     4.529000000    -0.290000000
O     1.203000000     4.280000000     4.250000000
H     1.233000000     4.649000000     3.367000000
H     1.811000000     3.540000000     4.221000000
O     3.028000000     8.721000000     1.911000000
H     3.103000000     8.630000000     0.961000000
H     2.335000000     8.108000000     2.156000000
O     7.406000000     5.187000000    -0.581000000
H     6.545000000     4.777000000    -0.659000000
H     8.015000000     4.532000000    -0.924000000
O     0.446000000     8.822000000    -0.390000000
H    -0.022000000     8.385000000     0.321000000
H    -0.113000000     9.562000000    -0.628000000
O     5.354000000     2.293000000     0.886000000
H     4.521000000     1.822000000     0.897000000
H     5.678000000     2.228000000     1.784000000
O     1.603000000     8.898000000    -3.063000000
H     1.416000000     8.974000000    -2.127000000
H     2.503000000     8.575000000    -3.102000000
O     2.778000000     4.903000000     6.447000000
H     2.251000000     4.676000000     5.680000000
H     2.187000000     4.777000000     7.189000000
O     0.782000000     7.222000000     2.069000000
H    -0.119000000     7.518000000     1.938000000
H     0.819000000     6.368000000     1.637000000
O     2.696000000     7.187000000    -0.942000000
H     2.570000000     6.304000000    -0.593000000
H     1.911000000     7.664000000    -0.675000000
O     4.990000000     4.797000000    -3.668000000
H     4.881000000     4.521000000    -2.758000000
H     5.808000000     4.387000000    -3.946000000
O     3.277000000     2.297000000     3.671000000
H     4.233000000     2.341000000     3.678000000
H     3.077000000     1.515000000     3.157000000
O     2.804000000     0.578000000     1.458000000
H     2.535000000    -0.325000000     1.291000000
H     2.200000000     1.108000000     0.939000000
O     5.720000000     7.895000000    -0.539000000
H     4.791000000     7.899000000    -0.772000000
H     5.961000000     6.968000000    -0.534000000
O    -0.724000000     6.868000000     5.488000000
H    -1.249000000     6.461000000     6.178000000
H    -0.454000000     6.138000000     4.931000000
O     4.074000000     5.201000000     2.645000000
H     3.327000000     4.986000000     2.087000000
H     3.725000000     5.175000000     3.536000000
O     1.977000000     7.701000000     5.180000000
H     1.164000000     7.634000000     5.682000000
H     1.729000000     7.452000000     4.290000000
O     5.036000000     4.151000000    -1.113000000
H     5.248000000     3.404000000    -0.553000000
H     4.108000000     4.318000000    -0.950000000
O     3.820000000     7.312000000    -3.368000000
H     4.164000000     6.480000000    -3.691000000
H     3.501000000     7.114000000    -2.487000000
O     6.617000000     5.907000000     2.026000000
H     6.966000000     5.722000000     1.154000000
H     5.761000000     5.480000000     2.037000000
