218
-1466.12777
C     1.099000000    -2.401000000     4.319000000
H     1.790000000    -3.012000000     3.743000000
C    -0.248000000    -2.290000000     3.957000000
C    -1.066000000    -1.457000000     4.788000000
H    -2.131000000    -1.342000000     4.603000000
C    -0.841000000    -3.043000000     2.713000000
O    -0.093000000    -4.212000000     2.466000000
H    -0.725000000    -2.359000000     1.859000000
O    -2.301000000    -3.423000000     2.828000000
C    -3.060000000    -3.117000000     1.779000000
C    -3.795000000    -1.912000000     1.772000000
H    -3.997000000    -1.334000000     2.670000000
C    -4.452000000    -1.491000000     0.606000000
O    -4.979000000    -0.200000000     0.651000000
C    -4.299000000    -2.228000000    -0.569000000
C    -4.940000000    -1.838000000    -1.902000000
H    -5.175000000    -2.677000000    -2.559000000
C    -4.081000000    -0.832000000    -2.634000000
C    -3.224000000    -1.267000000    -3.601000000
H    -3.222000000    -2.325000000    -3.852000000
H    -5.885000000    -1.350000000    -1.652000000
C    -3.555000000    -3.392000000    -0.508000000
H    -3.524000000    -3.995000000    -1.412000000
C    -2.921000000    -3.827000000     0.594000000
C    -2.152000000    -5.174000000     0.501000000
H    -2.628000000    -5.734000000    -0.307000000
H    -2.202000000    -5.814000000     1.384000000
C    -0.693000000    -4.862000000     0.145000000
C    -0.231000000    -4.949000000    -1.163000000
H    -0.973000000    -5.170000000    -1.926000000
C     0.247000000    -4.509000000     1.133000000
C     1.538000000    -4.213000000     0.740000000
H     2.215000000    -3.904000000     1.532000000
C     1.990000000    -4.286000000    -0.575000000
O     3.217000000    -3.722000000    -0.873000000
C     3.309000000    -2.401000000    -1.289000000
C     4.430000000    -1.699000000    -0.589000000
C     5.013000000    -0.572000000    -1.171000000
H     4.558000000    -0.113000000    -2.045000000
C     4.931000000    -2.145000000     0.643000000
H     4.561000000    -3.032000000     1.151000000
O     3.398000000    -2.461000000    -2.722000000
H     2.336000000    -1.930000000    -1.085000000
C     1.071000000    -4.543000000    -1.548000000
C     1.408000000    -4.475000000    -3.028000000
H     0.783000000    -5.122000000    -3.646000000
H     2.375000000    -4.977000000    -3.109000000
C     1.280000000    -3.086000000    -3.614000000
C     0.150000000    -2.628000000    -4.298000000
H    -0.616000000    -3.359000000    -4.545000000
C     2.325000000    -2.161000000    -3.522000000
C     2.156000000    -0.849000000    -3.917000000
H     2.959000000    -0.120000000    -3.847000000
C     0.901000000    -0.405000000    -4.336000000
O     0.738000000     0.947000000    -4.689000000
C    -0.101000000     1.738000000    -3.810000000
C     0.539000000     3.109000000    -3.520000000
C     1.934000000     3.251000000    -3.554000000
H     2.476000000     2.362000000    -3.869000000
C    -0.207000000     4.153000000    -2.941000000
H    -1.277000000     4.005000000    -2.819000000
O    -1.413000000     1.793000000    -4.440000000
H    -0.112000000     1.202000000    -2.849000000
C    -0.073000000    -1.292000000    -4.615000000
C    -1.371000000    -0.974000000    -5.304000000
H    -1.881000000    -1.896000000    -5.593000000
H    -1.243000000    -0.363000000    -6.200000000
C    -2.431000000    -0.382000000    -4.363000000
C    -2.379000000     0.940000000    -3.982000000
C    -3.260000000     1.417000000    -2.968000000
H    -3.201000000     2.429000000    -2.573000000
C    -4.049000000     0.528000000    -2.251000000
O    -4.709000000     1.024000000    -1.199000000
C    -4.158000000     0.802000000     0.099000000
H    -3.144000000     0.381000000     0.021000000
C    -4.177000000     2.058000000     0.975000000
C    -3.930000000     2.006000000     2.339000000
H    -3.867000000     1.093000000     2.926000000
C    -4.254000000     3.266000000     0.301000000
H    -4.415000000     3.333000000    -0.772000000
C    -4.216000000     4.469000000     0.985000000
O    -4.450000000     5.677000000     0.337000000
C    -4.118000000     4.433000000     2.372000000
H    -4.070000000     5.351000000     2.954000000
C    -4.018000000     3.239000000     3.020000000
O    -3.726000000     3.164000000     4.390000000
C    -3.664000000     2.105000000     5.293000000
C    -2.476000000     1.501000000     5.584000000
H    -1.558000000     1.673000000     5.027000000
C    -4.859000000     1.781000000     5.949000000
H    -5.788000000     2.269000000     5.668000000
C    -4.800000000     0.859000000     6.998000000
H    -5.696000000     0.746000000     7.603000000
C    -3.641000000     0.140000000     7.266000000
H    -3.603000000    -0.669000000     7.991000000
C    -2.504000000     0.419000000     6.523000000
O    -1.322000000    -0.262000000     6.832000000
C    -0.544000000    -0.888000000     5.864000000
C     0.794000000    -0.917000000     6.146000000
H     1.229000000    -0.397000000     6.997000000
C     1.600000000    -1.719000000     5.368000000
O     2.910000000    -1.672000000     5.633000000
C     3.816000000    -2.447000000     4.950000000
C     4.561000000    -1.820000000     3.944000000
H     4.338000000    -0.788000000     3.684000000
C     3.984000000    -3.752000000     5.239000000
H     3.446000000    -4.324000000     5.991000000
C     5.069000000    -4.465000000     4.681000000
H     5.257000000    -5.477000000     5.031000000
C     5.886000000    -3.812000000     3.731000000
H     6.779000000    -4.270000000     3.313000000
C     5.660000000    -2.464000000     3.448000000
O     6.497000000    -1.855000000     2.494000000
C     5.972000000    -1.474000000     1.288000000
C     6.595000000    -0.404000000     0.671000000
H     7.487000000    -0.045000000     1.178000000
C     6.069000000     0.058000000    -0.524000000
O     6.656000000     1.134000000    -1.126000000
C     6.296000000     1.744000000    -2.326000000
C     5.262000000     2.696000000    -2.225000000
H     4.907000000     2.998000000    -1.243000000
C     6.725000000     1.339000000    -3.597000000
H     7.419000000     0.504000000    -3.541000000
C     6.292000000     2.054000000    -4.687000000
H     6.672000000     1.740000000    -5.656000000
C     5.324000000     3.084000000    -4.568000000
H     4.939000000     3.744000000    -5.341000000
C     4.826000000     3.388000000    -3.333000000
O     3.922000000     4.444000000    -3.143000000
C     2.556000000     4.337000000    -2.999000000
C     1.828000000     5.334000000    -2.440000000
H     2.308000000     6.254000000    -2.117000000
C     0.453000000     5.276000000    -2.410000000
O    -0.261000000     6.236000000    -1.815000000
C    -1.633000000     6.390000000    -1.831000000
C    -2.224000000     7.032000000    -2.904000000
H    -1.614000000     7.504000000    -3.670000000
C    -3.620000000     7.133000000    -2.953000000
H    -4.071000000     7.522000000    -3.862000000
C    -4.361000000     6.666000000    -1.851000000
H    -5.438000000     6.613000000    -1.987000000
C    -3.745000000     6.191000000    -0.744000000
C    -2.389000000     6.033000000    -0.725000000
H    -1.930000000     5.502000000     0.104000000
C     1.215000000     2.094000000     0.012000000
H     1.994000000     2.638000000    -0.517000000
C     0.922000000     0.811000000    -0.488000000
H     1.530000000     0.496000000    -1.332000000
C    -0.125000000     0.033000000    -0.050000000
C    -0.480000000    -1.232000000    -0.795000000
H    -0.270000000    -1.077000000    -1.855000000
H     0.157000000    -2.002000000    -0.353000000
H    -1.554000000    -1.426000000    -0.791000000
C    -0.797000000     0.420000000     1.071000000
H    -1.545000000    -0.230000000     1.517000000
C    -0.581000000     1.691000000     1.640000000
H    -0.958000000     1.797000000     2.654000000
C     0.398000000     2.527000000     1.062000000
C     0.775000000     3.759000000     1.779000000
O    -0.147000000     4.443000000     2.246000000
O     1.903000000     4.122000000     1.706000000
O     2.323000000     5.927000000     4.007000000
H     2.251000000     5.516000000     3.146000000
H     1.443000000     6.255000000     4.191000000
O     4.275000000     6.750000000     5.797000000
H     3.764000000     6.819000000     6.604000000
H     3.628000000     6.549000000     5.121000000
O     0.852000000     6.822000000     1.004000000
H     0.879000000     5.932000000     1.356000000
H     0.121000000     6.814000000     0.386000000
O     4.115000000     4.807000000     0.528000000
H     4.462000000     5.488000000     1.103000000
H     3.270000000     4.574000000     0.913000000
O     7.320000000     5.530000000     2.173000000
H     7.519000000     4.630000000     2.430000000
H     6.391000000     5.638000000     2.378000000
O     4.057000000     1.731000000     6.228000000
H     3.148000000     1.502000000     6.421000000
H     4.016000000     2.192000000     5.390000000
O     5.920000000     6.209000000    -1.016000000
H     5.446000000     5.535000000    -0.529000000
H     6.726000000     5.778000000    -1.300000000
O     4.842000000     6.545000000     2.527000000
H     4.954000000     7.492000000     2.442000000
H     3.999000000     6.442000000     2.968000000
O     0.977000000     2.703000000     6.720000000
H     0.472000000     3.101000000     6.011000000
H     0.370000000     2.676000000     7.460000000
O     0.036000000     8.676000000     3.998000000
H    -0.351000000     9.260000000     4.651000000
H    -0.611000000     7.980000000     3.886000000
O     1.154000000     9.406000000     0.002000000
H     1.627000000     8.632000000     0.307000000
H     0.460000000     9.533000000     0.649000000
O     3.900000000     3.025000000     3.954000000
H     3.869000000     2.987000000     2.998000000
H     3.244000000     3.681000000     4.189000000
O    -0.380000000     4.120000000     4.850000000
H    -0.367000000     4.023000000     3.898000000
H    -0.831000000     4.951000000     5.000000000
O     2.125000000    10.097000000     3.453000000
H     2.803000000     9.522000000     3.807000000
H     1.361000000     9.530000000     3.346000000
O    -1.550000000     6.470000000     3.313000000
H    -1.107000000     5.743000000     2.874000000
H    -2.066000000     6.887000000     2.624000000
O    -3.650000000     8.427000000     1.848000000
H    -4.086000000     8.703000000     1.042000000
H    -4.261000000     8.667000000     2.545000000
O     1.477000000     5.209000000     7.810000000
H     1.513000000     4.326000000     7.442000000
H     0.593000000     5.516000000     7.608000000
O    -1.111000000     9.664000000     1.631000000
H    -0.638000000     9.112000000     2.255000000
H    -2.031000000     9.427000000     1.751000000
O    -3.563000000     6.967000000     5.147000000
H    -3.013000000     7.197000000     5.896000000
H    -2.950000000     6.634000000     4.492000000
