218
-1409.94850
C     1.711000000    -3.143000000     4.246000000
H     2.320000000    -3.846000000     3.683000000
C     0.398000000    -2.896000000     3.805000000
C    -0.384000000    -2.032000000     4.545000000
H    -1.390000000    -1.802000000     4.204000000
C    -0.058000000    -3.433000000     2.454000000
O     0.794000000    -4.478000000     1.906000000
H     0.057000000    -2.611000000     1.733000000
O    -1.507000000    -3.882000000     2.499000000
C    -2.359000000    -3.598000000     1.360000000
C    -3.219000000    -2.453000000     1.434000000
H    -3.355000000    -2.005000000     2.415000000
C    -3.986000000    -2.161000000     0.364000000
O    -4.775000000    -1.096000000     0.454000000
C    -3.809000000    -2.830000000    -0.881000000
C    -4.571000000    -2.402000000    -2.143000000
H    -4.646000000    -3.303000000    -2.755000000
C    -3.875000000    -1.250000000    -2.845000000
C    -3.031000000    -1.412000000    -3.997000000
H    -2.717000000    -2.400000000    -4.326000000
H    -5.639000000    -2.264000000    -1.964000000
C    -2.875000000    -3.830000000    -0.985000000
H    -2.661000000    -4.352000000    -1.914000000
C    -2.209000000    -4.258000000     0.154000000
C    -1.113000000    -5.277000000    -0.155000000
H    -1.446000000    -5.979000000    -0.923000000
H    -1.075000000    -5.866000000     0.763000000
C     0.234000000    -4.722000000    -0.458000000
C     0.634000000    -4.634000000    -1.753000000
H    -0.095000000    -4.962000000    -2.489000000
C     1.120000000    -4.477000000     0.568000000
C     2.456000000    -4.102000000     0.359000000
H     3.182000000    -3.937000000     1.151000000
C     2.862000000    -3.791000000    -0.947000000
O     3.983000000    -3.030000000    -1.170000000
C     3.638000000    -1.662000000    -1.314000000
C     4.562000000    -0.750000000    -0.486000000
C     5.085000000     0.492000000    -0.961000000
H     4.874000000     0.975000000    -1.912000000
C     5.024000000    -1.168000000     0.790000000
H     4.667000000    -2.136000000     1.134000000
O     3.811000000    -1.356000000    -2.754000000
H     2.590000000    -1.441000000    -1.064000000
C     1.953000000    -4.113000000    -2.010000000
C     2.276000000    -3.782000000    -3.462000000
H     1.734000000    -4.464000000    -4.122000000
H     3.363000000    -3.871000000    -3.522000000
C     1.910000000    -2.404000000    -3.913000000
C     0.614000000    -2.127000000    -4.447000000
H     0.010000000    -2.919000000    -4.882000000
C     2.717000000    -1.302000000    -3.522000000
C     2.293000000    -0.006000000    -3.733000000
H     2.852000000     0.775000000    -3.225000000
C     1.035000000     0.246000000    -4.339000000
O     0.763000000     1.579000000    -4.281000000
C    -0.407000000     2.168000000    -3.617000000
C    -0.184000000     3.606000000    -3.123000000
C     1.114000000     3.855000000    -2.654000000
H     1.892000000     3.111000000    -2.805000000
C    -1.239000000     4.497000000    -2.844000000
H    -2.264000000     4.177000000    -3.011000000
O    -1.647000000     1.944000000    -4.310000000
H    -0.445000000     1.644000000    -2.650000000
C     0.198000000    -0.809000000    -4.717000000
C    -1.116000000    -0.611000000    -5.431000000
H    -1.309000000    -1.525000000    -5.997000000
H    -1.192000000     0.183000000    -6.177000000
C    -2.214000000    -0.388000000    -4.446000000
C    -2.488000000     0.925000000    -3.939000000
C    -3.450000000     1.122000000    -2.932000000
H    -3.499000000     2.095000000    -2.451000000
C    -4.124000000     0.084000000    -2.445000000
O    -4.891000000     0.341000000    -1.369000000
C    -4.327000000     0.142000000    -0.102000000
H    -3.229000000     0.099000000    -0.157000000
C    -4.563000000     1.361000000     0.858000000
C    -4.153000000     1.267000000     2.212000000
H    -3.691000000     0.329000000     2.510000000
C    -5.076000000     2.631000000     0.411000000
H    -5.411000000     2.781000000    -0.612000000
C    -5.275000000     3.620000000     1.294000000
O    -5.831000000     4.859000000     0.832000000
C    -4.845000000     3.502000000     2.596000000
H    -5.000000000     4.335000000     3.277000000
C    -4.259000000     2.357000000     3.078000000
O    -3.929000000     2.247000000     4.449000000
C    -3.597000000     1.064000000     5.091000000
C    -2.278000000     0.870000000     5.438000000
H    -1.532000000     1.566000000     5.061000000
C    -4.614000000     0.282000000     5.465000000
H    -5.589000000     0.622000000     5.127000000
C    -4.358000000    -0.711000000     6.363000000
H    -5.156000000    -1.340000000     6.749000000
C    -3.044000000    -0.933000000     6.762000000
H    -2.780000000    -1.735000000     7.448000000
C    -1.998000000    -0.259000000     6.273000000
O    -0.721000000    -0.643000000     6.497000000
C     0.056000000    -1.449000000     5.742000000
C     1.281000000    -1.779000000     6.251000000
H     1.669000000    -1.217000000     7.097000000
C     2.095000000    -2.569000000     5.450000000
O     3.477000000    -2.823000000     5.877000000
C     4.488000000    -3.063000000     4.968000000
C     5.099000000    -2.000000000     4.336000000
H     4.822000000    -1.003000000     4.667000000
C     4.879000000    -4.346000000     4.594000000
H     4.314000000    -5.181000000     5.003000000
C     5.752000000    -4.537000000     3.536000000
H     5.963000000    -5.562000000     3.242000000
C     6.365000000    -3.476000000     2.869000000
H     7.079000000    -3.620000000     2.062000000
C     6.039000000    -2.173000000     3.342000000
O     6.541000000    -1.006000000     2.750000000
C     6.026000000    -0.487000000     1.490000000
C     6.443000000     0.743000000     1.031000000
H     7.233000000     1.284000000     1.546000000
C     5.936000000     1.220000000    -0.195000000
O     6.300000000     2.492000000    -0.499000000
C     5.781000000     3.268000000    -1.517000000
C     4.714000000     4.053000000    -1.160000000
H     4.354000000     3.969000000    -0.138000000
C     6.159000000     3.094000000    -2.846000000
H     6.967000000     2.418000000    -3.114000000
C     5.424000000     3.766000000    -3.809000000
H     5.675000000     3.743000000    -4.866000000
C     4.326000000     4.483000000    -3.431000000
H     3.763000000     4.904000000    -4.260000000
C     3.913000000     4.596000000    -2.135000000
O     2.821000000     5.397000000    -1.757000000
C     1.457000000     5.065000000    -2.032000000
C     0.383000000     5.955000000    -1.749000000
H     0.551000000     6.845000000    -1.148000000
C    -0.938000000     5.677000000    -2.133000000
O    -1.870000000     6.412000000    -1.427000000
C    -3.173000000     6.084000000    -1.456000000
C    -3.999000000     6.480000000    -2.512000000
H    -3.556000000     6.824000000    -3.443000000
C    -5.355000000     6.281000000    -2.501000000
H    -5.947000000     6.496000000    -3.388000000
C    -6.001000000     5.772000000    -1.346000000
H    -7.044000000     5.492000000    -1.466000000
C    -5.302000000     5.489000000    -0.242000000
C    -3.862000000     5.662000000    -0.269000000
H    -3.260000000     5.549000000     0.628000000
C    -0.025000000     3.494000000     0.733000000
H    -0.691000000     4.338000000     0.570000000
C    -0.367000000     2.247000000     0.321000000
H    -1.354000000     2.077000000    -0.101000000
C     0.585000000     1.206000000     0.351000000
C     0.176000000    -0.149000000    -0.110000000
H    -0.801000000    -0.195000000    -0.595000000
H     0.850000000    -0.535000000    -0.877000000
H     0.266000000    -0.762000000     0.789000000
C     1.902000000     1.383000000     0.830000000
H     2.587000000     0.540000000     0.868000000
C     2.161000000     2.651000000     1.255000000
H     3.123000000     2.958000000     1.659000000
C     1.294000000     3.730000000     1.209000000
C     1.736000000     5.136000000     1.444000000
O     2.867000000     5.471000000     1.623000000
O     0.922000000     5.972000000     1.612000000
O     2.673000000     4.629000000     7.044000000
H     2.248000000     3.789000000     7.219000000
H     2.084000000     5.072000000     6.434000000
O    -0.611000000     9.921000000     0.387000000
H    -0.028000000     9.164000000     0.448000000
H    -1.115000000     9.901000000     1.200000000
O     4.761000000     3.463000000     4.337000000
H     5.635000000     3.072000000     4.340000000
H     4.168000000     2.725000000     4.479000000
O     3.644000000     9.213000000     5.438000000
H     3.863000000    10.061000000     5.052000000
H     3.599000000     8.615000000     4.693000000
O    -0.840000000     5.653000000     3.659000000
H    -0.676000000     4.750000000     3.930000000
H    -0.248000000     5.792000000     2.919000000
O     4.043000000     7.683000000     3.067000000
H     4.233000000     6.745000000     3.078000000
H     3.282000000     7.766000000     2.492000000
O     5.511000000     5.340000000     2.432000000
H     5.257000000     4.798000000     3.179000000
H     4.693000000     5.498000000     1.961000000
O     3.164000000    10.141000000     1.112000000
H     3.804000000     9.561000000     0.699000000
H     2.479000000     9.554000000     1.431000000
O    -3.443000000     8.994000000     1.625000000
H    -2.677000000     8.553000000     1.991000000
H    -4.149000000     8.352000000     1.701000000
O     1.967000000     9.270000000    -2.275000000
H     2.492000000     9.970000000    -2.663000000
H     2.581000000     8.793000000    -1.716000000
O     0.124000000     7.279000000     7.176000000
H     0.797000000     7.000000000     6.555000000
H    -0.148000000     8.142000000     6.862000000
O     6.104000000     9.449000000     3.639000000
H     5.412000000     8.807000000     3.479000000
H     6.823000000     9.172000000     3.071000000
O    -2.643000000     7.378000000     4.854000000
H    -1.852000000     6.846000000     4.769000000
H    -3.192000000     6.895000000     5.471000000
O     7.658000000     5.649000000    -0.149000000
H     7.135000000     4.912000000     0.169000000
H     8.479000000     5.588000000     0.339000000
O    -1.268000000     8.913000000     3.140000000
H    -1.812000000     8.354000000     3.695000000
H    -1.216000000     9.743000000     3.613000000
O     3.473000000     7.616000000    -0.023000000
H     4.249000000     7.186000000    -0.382000000
H     3.057000000     6.945000000     0.519000000
O     0.278000000     3.085000000     4.617000000
H     0.533000000     2.676000000     3.790000000
H     0.958000000     2.819000000     5.236000000
O     1.774000000     6.323000000     5.099000000
H     2.354000000     6.795000000     4.502000000
H     1.075000000     5.987000000     4.539000000
O     1.329000000     8.404000000     2.268000000
H     0.496000000     8.480000000     2.732000000
H     1.326000000     7.514000000     1.914000000
