218
-1471.72163
C     1.966000000    -2.008000000     4.514000000
H     2.773000000    -2.719000000     4.353000000
C     0.674000000    -2.085000000     4.050000000
C    -0.280000000    -1.118000000     4.464000000
H    -1.266000000    -1.146000000     4.007000000
C     0.259000000    -3.067000000     2.924000000
O     1.263000000    -4.115000000     2.751000000
H     0.254000000    -2.558000000     1.949000000
O    -1.102000000    -3.595000000     3.261000000
C    -2.007000000    -3.742000000     2.217000000
C    -3.016000000    -2.825000000     2.176000000
H    -3.164000000    -2.125000000     2.994000000
C    -3.821000000    -2.718000000     1.019000000
O    -4.714000000    -1.715000000     1.041000000
C    -3.636000000    -3.617000000    -0.061000000
C    -4.305000000    -3.368000000    -1.396000000
H    -4.296000000    -4.271000000    -2.009000000
C    -3.635000000    -2.226000000    -2.133000000
C    -2.645000000    -2.481000000    -3.062000000
H    -2.416000000    -3.521000000    -3.281000000
H    -5.380000000    -3.234000000    -1.258000000
C    -2.591000000    -4.535000000     0.037000000
H    -2.422000000    -5.178000000    -0.823000000
C    -1.728000000    -4.561000000     1.091000000
C    -0.459000000    -5.465000000     1.018000000
H    -0.680000000    -6.308000000     0.360000000
H    -0.305000000    -5.869000000     2.021000000
C     0.871000000    -4.805000000     0.598000000
C     1.200000000    -4.768000000    -0.763000000
H     0.506000000    -5.004000000    -1.566000000
C     1.763000000    -4.290000000     1.541000000
C     2.924000000    -3.636000000     1.100000000
H     3.487000000    -3.001000000     1.779000000
C     3.236000000    -3.554000000    -0.262000000
O     4.274000000    -2.786000000    -0.615000000
C     3.928000000    -1.495000000    -1.230000000
C     4.819000000    -0.293000000    -0.709000000
C     4.919000000     0.922000000    -1.320000000
H     4.342000000     1.056000000    -2.231000000
C     5.341000000    -0.444000000     0.572000000
H     5.217000000    -1.386000000     1.100000000
O     3.970000000    -1.555000000    -2.675000000
H     2.886000000    -1.250000000    -0.975000000
C     2.427000000    -4.230000000    -1.209000000
C     2.804000000    -4.210000000    -2.722000000
H     2.461000000    -5.151000000    -3.157000000
H     3.883000000    -4.187000000    -2.888000000
C     2.210000000    -3.007000000    -3.454000000
C     0.924000000    -3.071000000    -4.056000000
H     0.271000000    -3.940000000    -4.062000000
C     2.845000000    -1.759000000    -3.390000000
C     2.224000000    -0.597000000    -3.829000000
H     2.764000000     0.345000000    -3.865000000
C     0.997000000    -0.650000000    -4.475000000
O     0.346000000     0.552000000    -4.713000000
C    -0.554000000     1.085000000    -3.782000000
C    -0.363000000     2.610000000    -3.694000000
C     0.818000000     3.279000000    -4.078000000
H     1.622000000     2.752000000    -4.586000000
C    -1.348000000     3.396000000    -3.016000000
H    -2.268000000     2.888000000    -2.740000000
O    -1.867000000     0.894000000    -4.338000000
H    -0.486000000     0.642000000    -2.778000000
C     0.261000000    -1.859000000    -4.460000000
C    -1.182000000    -1.851000000    -4.970000000
H    -1.422000000    -2.822000000    -5.407000000
H    -1.274000000    -1.230000000    -5.864000000
C    -2.174000000    -1.474000000    -3.913000000
C    -2.590000000    -0.156000000    -3.736000000
C    -3.586000000     0.092000000    -2.807000000
H    -3.985000000     1.094000000    -2.666000000
C    -4.153000000    -0.910000000    -2.002000000
O    -4.981000000    -0.489000000    -1.042000000
C    -4.507000000    -0.425000000     0.291000000
H    -3.417000000    -0.294000000     0.374000000
C    -5.191000000     0.713000000     0.993000000
C    -5.203000000     0.741000000     2.389000000
H    -4.811000000    -0.122000000     2.920000000
C    -5.548000000     1.880000000     0.271000000
H    -5.390000000     1.966000000    -0.801000000
C    -5.933000000     3.065000000     0.875000000
O    -6.302000000     4.309000000     0.270000000
C    -6.039000000     3.042000000     2.324000000
H    -6.353000000     3.958000000     2.818000000
C    -5.613000000     1.943000000     3.020000000
O    -5.386000000     1.973000000     4.363000000
C    -4.495000000     1.182000000     5.039000000
C    -3.157000000     1.492000000     4.944000000
H    -2.910000000     2.400000000     4.399000000
C    -4.948000000     0.085000000     5.768000000
H    -5.993000000    -0.100000000     6.004000000
C    -4.057000000    -0.593000000     6.518000000
H    -4.385000000    -1.410000000     7.155000000
C    -2.653000000    -0.350000000     6.424000000
H    -1.934000000    -0.825000000     7.088000000
C    -2.196000000     0.652000000     5.651000000
O    -0.847000000     0.939000000     5.565000000
C     0.052000000    -0.093000000     5.340000000
C     1.352000000     0.026000000     5.595000000
H     1.617000000     0.906000000     6.176000000
C     2.277000000    -0.920000000     5.306000000
O     3.478000000    -0.900000000     5.894000000
C     4.570000000    -1.029000000     5.107000000
C     4.953000000    -0.197000000     4.059000000
H     4.262000000     0.556000000     3.687000000
C     5.386000000    -2.152000000     5.428000000
H     5.080000000    -2.852000000     6.200000000
C     6.494000000    -2.331000000     4.639000000
H     7.117000000    -3.209000000     4.785000000
C     7.041000000    -1.362000000     3.814000000
H     7.995000000    -1.544000000     3.326000000
C     6.199000000    -0.352000000     3.374000000
O     6.536000000     0.610000000     2.486000000
C     6.067000000     0.601000000     1.181000000
C     6.143000000     1.839000000     0.511000000
H     6.505000000     2.686000000     1.088000000
C     5.606000000     1.994000000    -0.757000000
O     5.733000000     3.264000000    -1.372000000
C     5.254000000     3.723000000    -2.561000000
C     3.886000000     4.075000000    -2.729000000
H     3.220000000     4.000000000    -1.874000000
C     6.136000000     3.871000000    -3.583000000
H     7.181000000     3.727000000    -3.321000000
C     5.758000000     4.539000000    -4.798000000
H     6.463000000     4.629000000    -5.620000000
C     4.438000000     4.931000000    -4.922000000
H     4.119000000     5.429000000    -5.834000000
C     3.477000000     4.674000000    -3.967000000
O     2.180000000     5.209000000    -4.117000000
C     0.968000000     4.585000000    -3.785000000
C     0.020000000     5.352000000    -3.123000000
H     0.314000000     6.316000000    -2.716000000
C    -1.121000000     4.723000000    -2.717000000
O    -2.010000000     5.350000000    -1.894000000
C    -3.418000000     5.189000000    -1.902000000
C    -4.010000000     5.454000000    -3.142000000
H    -3.450000000     5.682000000    -4.045000000
C    -5.411000000     5.436000000    -3.176000000
H    -5.945000000     5.581000000    -4.112000000
C    -6.138000000     4.934000000    -2.092000000
H    -7.222000000     4.855000000    -2.130000000
C    -5.551000000     4.733000000    -0.851000000
C    -4.151000000     4.884000000    -0.724000000
H    -3.749000000     4.711000000     0.271000000
C     0.328000000     3.010000000    -0.031000000
H     0.054000000     4.039000000    -0.251000000
C    -0.350000000     1.821000000    -0.257000000
H    -1.265000000     1.908000000    -0.836000000
C     0.140000000     0.567000000     0.105000000
C    -0.523000000    -0.744000000    -0.261000000
H    -0.789000000    -1.321000000     0.627000000
H    -1.353000000    -0.507000000    -0.929000000
H     0.257000000    -1.285000000    -0.800000000
C     1.371000000     0.497000000     0.722000000
H     1.753000000    -0.470000000     1.038000000
C     2.137000000     1.617000000     1.004000000
H     3.150000000     1.517000000     1.385000000
C     1.598000000     2.868000000     0.664000000
C     2.360000000     4.172000000     0.958000000
O     3.388000000     4.105000000     1.628000000
O     2.013000000     5.213000000     0.413000000
O     1.332000000     9.722000000    -2.406000000
H     1.716000000     8.866000000    -2.217000000
H     2.086000000    10.298000000    -2.537000000
O     6.515000000     4.082000000     4.257000000
H     6.279000000     3.158000000     4.166000000
H     6.216000000     4.486000000     3.442000000
O     5.743000000     5.190000000     1.739000000
H     5.113000000     4.508000000     1.506000000
H     5.209000000     5.972000000     1.877000000
O    -1.229000000     9.162000000     1.788000000
H    -1.896000000     9.096000000     2.471000000
H    -1.461000000     8.478000000     1.160000000
O    -0.433000000     4.880000000     3.202000000
H    -0.411000000     3.927000000     3.116000000
H     0.319000000     5.088000000     3.756000000
O     3.908000000     2.984000000     6.859000000
H     4.089000000     2.277000000     7.478000000
H     3.841000000     2.548000000     6.010000000
O     3.395000000     2.960000000     3.836000000
H     3.394000000     3.284000000     2.935000000
H     2.895000000     3.612000000     4.326000000
O     4.860000000     8.153000000     5.124000000
H     5.077000000     7.602000000     5.876000000
H     4.022000000     7.812000000     4.811000000
O     5.466000000     5.489000000     6.285000000
H     5.605000000     5.090000000     5.426000000
H     5.173000000     4.766000000     6.840000000
O     4.994000000     8.222000000     0.020000000
H     5.538000000     7.448000000    -0.124000000
H     4.133000000     7.871000000     0.248000000
O    -0.755000000     8.564000000    -0.926000000
H    -0.428000000     7.826000000    -0.412000000
H     0.034000000     8.983000000    -1.272000000
O     1.476000000     9.583000000     2.048000000
H     0.571000000     9.284000000     1.968000000
H     1.608000000    10.157000000     1.294000000
O     2.517000000     7.121000000    -1.567000000
H     2.626000000     6.565000000    -2.339000000
H     2.371000000     6.506000000    -0.848000000
O    -3.529000000     5.077000000     3.218000000
H    -3.592000000     5.871000000     3.750000000
H    -2.589000000     4.913000000     3.143000000
O     1.990000000     5.394000000     4.778000000
H     2.159000000     5.357000000     5.720000000
H     1.876000000     6.326000000     4.592000000
O    -0.495000000     2.098000000     2.727000000
H    -1.090000000     1.825000000     2.028000000
H     0.305000000     1.596000000     2.570000000
O     1.274000000     7.795000000     4.222000000
H     1.524000000     8.350000000     3.483000000
H     0.647000000     8.323000000     4.717000000
O     3.240000000     6.906000000     2.061000000
H     2.967000000     6.129000000     1.573000000
H     2.620000000     6.962000000     2.788000000
O    -0.258000000     6.453000000     0.803000000
H    -0.431000000     6.127000000     1.686000000
H     0.519000000     5.972000000     0.519000000
