218
-1504.40094
C     1.792000000    -2.063000000     4.588000000
H     2.653000000    -2.465000000     4.061000000
C     0.562000000    -2.587000000     4.129000000
C    -0.603000000    -2.436000000     4.909000000
H    -1.558000000    -2.850000000     4.597000000
C     0.517000000    -3.304000000     2.791000000
O     1.775000000    -3.929000000     2.470000000
H     0.322000000    -2.571000000     1.994000000
O    -0.545000000    -4.297000000     2.669000000
C    -1.354000000    -4.255000000     1.530000000
C    -2.488000000    -3.416000000     1.489000000
H    -2.797000000    -2.931000000     2.412000000
C    -3.216000000    -3.255000000     0.310000000
O    -4.302000000    -2.403000000     0.304000000
C    -2.818000000    -3.913000000    -0.881000000
C    -3.464000000    -3.616000000    -2.231000000
H    -3.357000000    -4.478000000    -2.892000000
C    -3.010000000    -2.361000000    -2.937000000
C    -1.858000000    -2.395000000    -3.749000000
H    -1.325000000    -3.329000000    -3.908000000
H    -4.516000000    -3.560000000    -1.941000000
C    -1.701000000    -4.771000000    -0.809000000
H    -1.322000000    -5.273000000    -1.696000000
C    -0.878000000    -4.815000000     0.352000000
C     0.479000000    -5.502000000     0.227000000
H     0.375000000    -6.306000000    -0.505000000
H     0.673000000    -6.012000000     1.173000000
C     1.630000000    -4.514000000     0.053000000
C     2.136000000    -4.326000000    -1.251000000
H     1.705000000    -4.941000000    -2.037000000
C     2.169000000    -3.859000000     1.141000000
C     3.177000000    -2.939000000     0.927000000
H     3.496000000    -2.397000000     1.813000000
C     3.587000000    -2.659000000    -0.390000000
O     4.520000000    -1.648000000    -0.530000000
C     4.045000000    -0.390000000    -1.038000000
C     4.714000000     0.736000000    -0.239000000
C     4.955000000     1.969000000    -0.824000000
H     4.913000000     2.112000000    -1.900000000
C     4.973000000     0.529000000     1.099000000
H     4.672000000    -0.386000000     1.602000000
O     4.361000000    -0.235000000    -2.484000000
H     2.950000000    -0.321000000    -0.955000000
C     3.127000000    -3.348000000    -1.521000000
C     3.656000000    -3.065000000    -2.904000000
H     3.663000000    -3.997000000    -3.473000000
H     4.738000000    -2.927000000    -2.852000000
C     2.899000000    -1.893000000    -3.506000000
C     1.720000000    -2.100000000    -4.195000000
H     1.356000000    -3.107000000    -4.382000000
C     3.404000000    -0.561000000    -3.416000000
C     2.707000000     0.491000000    -3.959000000
H     3.149000000     1.471000000    -3.802000000
C     1.479000000     0.324000000    -4.589000000
O     0.704000000     1.464000000    -4.799000000
C    -0.525000000     1.696000000    -3.992000000
C    -0.722000000     3.166000000    -3.613000000
C     0.385000000     3.804000000    -2.937000000
H     1.336000000     3.288000000    -2.828000000
C    -1.893000000     3.831000000    -3.682000000
H    -2.682000000     3.279000000    -4.185000000
O    -1.773000000     1.223000000    -4.643000000
H    -0.455000000     1.181000000    -3.023000000
C     0.992000000    -1.008000000    -4.710000000
C    -0.356000000    -1.238000000    -5.398000000
H    -0.316000000    -2.226000000    -5.860000000
H    -0.448000000    -0.526000000    -6.221000000
C    -1.474000000    -1.196000000    -4.399000000
C    -2.204000000     0.010000000    -4.207000000
C    -3.321000000     0.045000000    -3.388000000
H    -3.917000000     0.943000000    -3.248000000
C    -3.682000000    -1.160000000    -2.694000000
O    -4.602000000    -1.107000000    -1.735000000
C    -4.125000000    -1.095000000    -0.338000000
H    -3.036000000    -0.941000000    -0.331000000
C    -4.640000000     0.063000000     0.585000000
C    -4.487000000    -0.034000000     1.988000000
H    -4.010000000    -0.887000000     2.464000000
C    -5.280000000     1.160000000     0.017000000
H    -5.485000000     1.195000000    -1.050000000
C    -5.509000000     2.258000000     0.865000000
O    -5.985000000     3.457000000     0.452000000
C    -5.261000000     2.164000000     2.187000000
H    -5.540000000     3.040000000     2.766000000
C    -4.709000000     1.083000000     2.757000000
O    -4.579000000     1.056000000     4.135000000
C    -4.204000000    -0.076000000     4.885000000
C    -2.971000000    -0.209000000     5.505000000
H    -2.215000000     0.535000000     5.266000000
C    -5.197000000    -1.038000000     5.186000000
H    -6.198000000    -0.882000000     4.791000000
C    -5.053000000    -1.993000000     6.139000000
H    -5.854000000    -2.707000000     6.314000000
C    -3.808000000    -2.150000000     6.688000000
H    -3.632000000    -2.988000000     7.357000000
C    -2.799000000    -1.326000000     6.305000000
O    -1.603000000    -1.478000000     6.876000000
C    -0.555000000    -1.631000000     6.058000000
C     0.651000000    -0.904000000     6.379000000
H     0.721000000    -0.119000000     7.127000000
C     1.838000000    -1.219000000     5.741000000
O     3.004000000    -0.645000000     6.211000000
C     4.176000000    -0.691000000     5.465000000
C     4.523000000     0.319000000     4.615000000
H     3.964000000     1.249000000     4.539000000
C     4.996000000    -1.813000000     5.693000000
H     4.538000000    -2.557000000     6.339000000
C     6.180000000    -1.923000000     4.915000000
H     6.825000000    -2.787000000     5.057000000
C     6.504000000    -0.960000000     4.004000000
H     7.368000000    -1.100000000     3.359000000
C     5.686000000     0.177000000     3.858000000
O     6.116000000     1.232000000     3.094000000
C     5.651000000     1.490000000     1.847000000
C     5.868000000     2.799000000     1.332000000
H     6.347000000     3.642000000     1.825000000
C     5.509000000     3.010000000    -0.017000000
O     5.723000000     4.210000000    -0.588000000
C     4.846000000     4.674000000    -1.607000000
C     3.531000000     4.944000000    -1.312000000
H     3.230000000     4.704000000    -0.295000000
C     5.282000000     4.581000000    -2.927000000
H     6.340000000     4.374000000    -3.064000000
C     4.406000000     5.090000000    -3.920000000
H     4.775000000     5.263000000    -4.927000000
C     3.094000000     5.388000000    -3.625000000
H     2.400000000     5.729000000    -4.389000000
C     2.643000000     5.299000000    -2.306000000
O     1.403000000     5.681000000    -1.985000000
C     0.318000000     5.136000000    -2.600000000
C    -0.975000000     5.756000000    -2.562000000
H    -1.055000000     6.681000000    -1.997000000
C    -2.065000000     5.043000000    -3.060000000
O    -3.342000000     5.625000000    -3.022000000
C    -4.455000000     4.931000000    -2.613000000
C    -5.391000000     4.637000000    -3.574000000
H    -5.179000000     5.018000000    -4.570000000
C    -6.557000000     3.914000000    -3.232000000
H    -7.257000000     3.633000000    -4.015000000
C    -6.725000000     3.615000000    -1.910000000
H    -7.636000000     3.066000000    -1.686000000
C    -5.773000000     3.814000000    -0.878000000
C    -4.587000000     4.413000000    -1.298000000
H    -3.756000000     4.595000000    -0.622000000
C    -0.254000000     2.834000000     0.305000000
H    -0.970000000     3.631000000     0.123000000
C    -0.599000000     1.605000000    -0.227000000
H    -1.514000000     1.467000000    -0.798000000
C     0.143000000     0.453000000    -0.001000000
C    -0.222000000    -0.865000000    -0.704000000
H     0.634000000    -1.278000000    -1.240000000
H    -0.510000000    -1.665000000    -0.018000000
H    -1.088000000    -0.695000000    -1.347000000
C     1.275000000     0.557000000     0.769000000
H     1.765000000    -0.356000000     1.098000000
C     1.656000000     1.775000000     1.232000000
H     2.589000000     1.837000000     1.786000000
C     0.896000000     2.936000000     1.092000000
C     1.223000000     4.230000000     1.782000000
O     2.318000000     4.339000000     2.309000000
O     0.409000000     5.140000000     1.959000000
O    -3.724000000     3.330000000     5.534000000
H    -2.778000000     3.351000000     5.394000000
H    -4.044000000     2.675000000     4.913000000
O    -0.041000000     9.047000000     1.396000000
H    -0.769000000     8.437000000     1.512000000
H     0.684000000     8.649000000     1.877000000
O     4.501000000     5.560000000     2.416000000
H     3.638000000     5.262000000     2.129000000
H     4.720000000     4.989000000     3.152000000
O    -1.328000000     4.045000000     4.182000000
H    -1.096000000     3.164000000     3.887000000
H    -0.896000000     4.628000000     3.558000000
O     3.670000000     6.005000000     7.207000000
H     3.908000000     6.862000000     6.853000000
H     3.391000000     5.500000000     6.443000000
O     3.218000000     4.420000000     4.806000000
H     2.936000000     4.462000000     3.892000000
H     3.200000000     3.487000000     5.019000000
O     0.932000000     9.384000000     4.768000000
H     0.872000000     8.446000000     4.584000000
H     0.167000000     9.571000000     5.312000000
O     4.180000000     9.048000000    -0.756000000
H     4.897000000     8.602000000    -0.305000000
H     3.625000000     9.382000000    -0.051000000
O     6.053000000     7.852000000     0.845000000
H     5.717000000     8.439000000     1.522000000
H     5.876000000     6.973000000     1.180000000
O     4.209000000     7.933000000     5.254000000
H     4.007000000     8.277000000     4.384000000
H     5.104000000     7.602000000     5.179000000
O     3.534000000     8.940000000     2.519000000
H     3.233000000     9.830000000     2.332000000
H     2.915000000     8.376000000     2.055000000
O    -1.846000000     7.847000000     4.027000000
H    -2.064000000     8.044000000     4.938000000
H    -1.290000000     7.069000000     4.077000000
O     2.045000000     7.196000000     0.792000000
H     2.455000000     6.833000000     0.007000000
H     1.485000000     6.491000000     1.117000000
O     1.463000000     2.040000000     5.786000000
H     1.602000000     1.714000000     6.675000000
H     0.886000000     2.796000000     5.895000000
O    -0.232000000     1.477000000     3.700000000
H    -0.023000000     0.889000000     2.975000000
H     0.489000000     1.361000000     4.319000000
O     0.820000000     9.653000000    -0.873000000
H     0.491000000     9.336000000    -0.032000000
H     1.068000000     8.860000000    -1.348000000
O    -0.083000000     4.074000000     6.734000000
H     0.324000000     4.788000000     7.225000000
H    -0.462000000     4.498000000     5.964000000
O     1.222000000     6.552000000     4.183000000
H     1.085000000     6.215000000     3.298000000
H     2.016000000     6.112000000     4.487000000
O    -1.766000000     6.635000000     1.310000000
H    -2.399000000     6.030000000     1.696000000
H    -0.916000000     6.226000000     1.469000000
