218
-1487.91704
C    -4.649000000    -1.040000000    -1.479000000
H    -4.691000000    -0.261000000    -2.236000000
C    -4.449000000    -0.735000000    -0.133000000
C    -4.463000000    -1.782000000     0.879000000
H    -4.347000000    -1.477000000     1.916000000
C    -4.022000000     0.699000000     0.268000000
O    -4.584000000     1.651000000    -0.572000000
H    -2.929000000     0.824000000     0.252000000
O    -4.389000000     0.897000000     1.679000000
C    -3.441000000     1.563000000     2.462000000
C    -2.744000000     0.809000000     3.356000000
H    -2.777000000    -0.271000000     3.470000000
C    -1.794000000     1.329000000     4.228000000
O    -1.042000000     0.337000000     4.864000000
C    -1.359000000     2.619000000     4.064000000
C    -0.124000000     3.068000000     4.819000000
H    -0.155000000     4.124000000     5.096000000
C     1.161000000     2.758000000     4.064000000
C     1.718000000     3.724000000     3.255000000
H     1.310000000     4.731000000     3.252000000
H    -0.097000000     2.711000000     5.851000000
C    -2.034000000     3.422000000     3.132000000
H    -1.822000000     4.476000000     2.974000000
C    -3.097000000     2.892000000     2.334000000
C    -3.921000000     3.753000000     1.377000000
H    -4.053000000     4.790000000     1.691000000
H    -4.960000000     3.438000000     1.492000000
C    -3.381000000     3.689000000    -0.053000000
C    -2.363000000     4.527000000    -0.509000000
H    -2.056000000     5.267000000     0.226000000
C    -3.753000000     2.657000000    -0.981000000
C    -3.166000000     2.528000000    -2.267000000
H    -3.408000000     1.629000000    -2.827000000
C    -2.102000000     3.360000000    -2.586000000
O    -1.451000000     3.104000000    -3.770000000
C    -0.298000000     2.234000000    -3.663000000
C    -0.237000000     1.310000000    -4.845000000
C     0.985000000     0.913000000    -5.356000000
H     1.902000000     1.351000000    -4.971000000
C    -1.432000000     0.789000000    -5.310000000
H    -2.382000000     1.121000000    -4.900000000
O     0.940000000     3.023000000    -3.686000000
H    -0.373000000     1.505000000    -2.843000000
C    -1.696000000     4.345000000    -1.718000000
C    -0.408000000     5.111000000    -2.032000000
H    -0.519000000     6.096000000    -1.574000000
H    -0.355000000     5.341000000    -3.099000000
C     0.949000000     4.414000000    -1.728000000
C     1.598000000     4.680000000    -0.491000000
H     1.119000000     5.362000000     0.207000000
C     1.437000000     3.402000000    -2.479000000
C     2.669000000     2.734000000    -2.173000000
H     3.106000000     2.027000000    -2.873000000
C     3.283000000     3.054000000    -0.963000000
O     4.328000000     2.216000000    -0.592000000
C     4.001000000     1.165000000     0.351000000
C     4.698000000    -0.095000000    -0.184000000
C     4.703000000    -0.370000000    -1.517000000
H     4.190000000     0.281000000    -2.220000000
C     5.246000000    -1.040000000     0.691000000
H     5.347000000    -0.879000000     1.761000000
O     4.357000000     1.679000000     1.648000000
H     2.937000000     0.888000000     0.379000000
C     2.765000000     3.993000000    -0.140000000
C     3.359000000     4.278000000     1.281000000
H     3.120000000     5.320000000     1.500000000
H     4.441000000     4.228000000     1.139000000
C     2.812000000     3.326000000     2.390000000
C     3.444000000     2.094000000     2.506000000
C     2.835000000     1.169000000     3.330000000
H     3.198000000     0.145000000     3.326000000
C     1.741000000     1.483000000     4.066000000
O     1.269000000     0.471000000     4.898000000
C     0.136000000    -0.211000000     4.357000000
H     0.124000000    -0.231000000     3.257000000
C     0.224000000    -1.674000000     4.778000000
C    -0.935000000    -2.358000000     5.152000000
H    -1.880000000    -1.841000000     5.294000000
C     1.330000000    -2.452000000     4.440000000
H     2.264000000    -2.021000000     4.090000000
C     1.401000000    -3.851000000     4.691000000
O     2.469000000    -4.619000000     4.431000000
C     0.235000000    -4.524000000     5.120000000
H     0.074000000    -5.596000000     5.206000000
C    -0.881000000    -3.695000000     5.363000000
O    -2.043000000    -4.417000000     5.556000000
C    -3.160000000    -4.117000000     4.825000000
C    -3.250000000    -4.307000000     3.441000000
H    -2.378000000    -4.677000000     2.908000000
C    -4.260000000    -3.708000000     5.532000000
H    -4.185000000    -3.651000000     6.615000000
C    -5.426000000    -3.479000000     4.869000000
H    -6.229000000    -3.223000000     5.556000000
C    -5.520000000    -3.546000000     3.469000000
H    -6.395000000    -3.211000000     2.919000000
C    -4.386000000    -3.936000000     2.744000000
O    -4.485000000    -4.181000000     1.412000000
C    -4.564000000    -3.135000000     0.497000000
C    -4.714000000    -3.384000000    -0.849000000
H    -4.821000000    -4.407000000    -1.201000000
C    -4.823000000    -2.349000000    -1.797000000
O    -4.821000000    -2.782000000    -3.087000000
C    -4.818000000    -2.076000000    -4.238000000
C    -3.667000000    -1.798000000    -4.989000000
H    -2.737000000    -2.261000000    -4.668000000
C    -6.039000000    -1.715000000    -4.767000000
H    -6.958000000    -2.098000000    -4.331000000
C    -6.085000000    -1.024000000    -5.999000000
H    -7.039000000    -0.812000000    -6.474000000
C    -4.920000000    -0.697000000    -6.642000000
H    -4.875000000    -0.181000000    -7.597000000
C    -3.672000000    -1.054000000    -6.137000000
O    -2.579000000    -0.716000000    -6.871000000
C    -1.380000000    -0.137000000    -6.361000000
C    -0.168000000    -0.357000000    -6.987000000
H    -0.151000000    -0.973000000    -7.882000000
C     1.028000000    -0.009000000    -6.423000000
O     2.208000000    -0.441000000    -6.996000000
C     3.414000000    -0.428000000    -6.266000000
C     3.557000000    -1.183000000    -5.145000000
H     2.683000000    -1.755000000    -4.845000000
C     4.488000000     0.411000000    -6.622000000
H     4.445000000     1.104000000    -7.458000000
C     5.678000000     0.386000000    -5.898000000
H     6.448000000     1.097000000    -6.186000000
C     5.800000000    -0.411000000    -4.776000000
H     6.689000000    -0.426000000    -4.150000000
C     4.731000000    -1.197000000    -4.352000000
O     4.925000000    -2.054000000    -3.263000000
C     5.133000000    -1.612000000    -1.981000000
C     5.595000000    -2.618000000    -1.138000000
H     6.000000000    -3.576000000    -1.455000000
C     5.629000000    -2.291000000     0.211000000
O     5.932000000    -3.269000000     1.169000000
C     5.463000000    -3.339000000     2.518000000
C     6.291000000    -3.108000000     3.579000000
H     7.315000000    -2.801000000     3.381000000
C     5.844000000    -3.188000000     4.933000000
H     6.517000000    -2.972000000     5.759000000
C     4.579000000    -3.688000000     5.170000000
H     4.268000000    -3.844000000     6.199000000
C     3.749000000    -4.037000000     4.150000000
C     4.191000000    -3.890000000     2.734000000
H     3.677000000    -4.286000000     1.862000000
C     0.552000000    -2.336000000     0.418000000
H     1.039000000    -3.069000000     1.055000000
C     0.529000000    -1.019000000     0.813000000
H     1.078000000    -0.671000000     1.685000000
C    -0.064000000    -0.030000000     0.050000000
C    -0.109000000     1.369000000     0.556000000
H    -0.785000000     2.089000000     0.089000000
H    -0.152000000     1.357000000     1.647000000
H     0.826000000     1.852000000     0.267000000
C    -0.952000000    -0.384000000    -0.951000000
H    -1.553000000     0.375000000    -1.446000000
C    -0.980000000    -1.671000000    -1.464000000
H    -1.609000000    -2.023000000    -2.278000000
C    -0.207000000    -2.682000000    -0.775000000
C    -0.224000000    -4.132000000    -1.182000000
O    -0.714000000    -4.466000000    -2.228000000
O     0.047000000    -5.025000000    -0.289000000
O    -0.871000000    -7.209000000    -2.448000000
H    -0.751000000    -6.285000000    -2.229000000
H    -1.548000000    -7.208000000    -3.125000000
O     1.288000000    -5.911000000     2.119000000
H     0.979000000    -5.725000000     1.233000000
H     0.765000000    -5.339000000     2.681000000
O     0.964000000    -3.804000000    -4.081000000
H     1.795000000    -3.712000000    -3.616000000
H     0.317000000    -3.945000000    -3.390000000
O     2.953000000    -4.239000000    -6.376000000
H     2.398000000    -3.848000000    -5.701000000
H     2.539000000    -3.987000000    -7.202000000
O     2.859000000    -4.936000000    -1.759000000
H     2.242000000    -5.333000000    -1.145000000
H     2.744000000    -5.433000000    -2.569000000
O    -1.521000000    -8.446000000     1.536000000
H    -1.419000000    -9.059000000     0.808000000
H    -1.674000000    -7.599000000     1.116000000
O    -3.570000000    -7.478000000    -3.574000000
H    -3.798000000    -8.392000000    -3.746000000
H    -3.834000000    -7.333000000    -2.665000000
O    -1.101000000    -9.682000000    -1.023000000
H    -0.321000000   -10.073000000    -1.415000000
H    -1.257000000    -8.890000000    -1.537000000
O     4.702000000    -6.833000000    -2.269000000
H     5.390000000    -6.930000000    -1.610000000
H     4.069000000    -6.237000000    -1.868000000
O    -4.064000000    -5.891000000    -6.437000000
H    -4.999000000    -5.863000000    -6.236000000
H    -3.688000000    -5.169000000    -5.932000000
O     1.795000000    -6.747000000    -3.819000000
H     0.872000000    -6.637000000    -4.047000000
H     2.142000000    -7.326000000    -4.498000000
O    -0.050000000    -5.521000000    -5.820000000
H    -0.859000000    -5.730000000    -5.353000000
H     0.343000000    -4.810000000    -5.313000000
O    -4.746000000    -6.998000000    -1.114000000
H    -3.948000000    -6.632000000    -0.732000000
H    -4.669000000    -7.941000000    -0.971000000
O     3.585000000    -7.474000000     3.001000000
H     3.374000000    -8.153000000     3.642000000
H     2.895000000    -6.819000000     3.110000000
O     1.668000000    -7.087000000    -0.603000000
H     0.950000000    -6.477000000    -0.432000000
H     1.421000000    -7.524000000    -1.418000000
O     3.490000000    -8.780000000     0.428000000
H     2.982000000    -8.089000000     0.004000000
H     3.754000000    -8.403000000     1.267000000
O    -2.469000000    -6.082000000     0.263000000
H    -2.971000000    -5.319000000     0.547000000
H    -1.664000000    -5.717000000    -0.104000000
O     1.455000000    -9.927000000    -2.504000000
H     2.103000000   -10.454000000    -2.038000000
H     1.974000000    -9.321000000    -3.033000000
O    -2.526000000    -5.194000000    -4.315000000
H    -2.154000000    -4.962000000    -3.464000000
H    -2.963000000    -6.032000000    -4.165000000
