218
-1460.32620
C     1.812000000    -2.655000000     4.655000000
H     2.604000000    -3.007000000     3.999000000
C     0.487000000    -2.721000000     4.207000000
C    -0.474000000    -2.003000000     4.888000000
H    -1.466000000    -2.052000000     4.445000000
C     0.173000000    -3.222000000     2.826000000
O     1.056000000    -4.243000000     2.454000000
H     0.380000000    -2.530000000     1.997000000
O    -1.243000000    -3.756000000     2.747000000
C    -2.026000000    -3.703000000     1.591000000
C    -3.116000000    -2.837000000     1.598000000
H    -3.315000000    -2.300000000     2.522000000
C    -3.792000000    -2.616000000     0.435000000
O    -4.700000000    -1.573000000     0.578000000
C    -3.497000000    -3.315000000    -0.767000000
C    -4.336000000    -2.874000000    -1.972000000
H    -4.401000000    -3.719000000    -2.660000000
C    -3.801000000    -1.725000000    -2.802000000
C    -2.933000000    -2.029000000    -3.850000000
H    -2.641000000    -3.061000000    -4.032000000
H    -5.316000000    -2.532000000    -1.630000000
C    -2.464000000    -4.258000000    -0.758000000
H    -2.206000000    -4.861000000    -1.624000000
C    -1.789000000    -4.479000000     0.472000000
C    -0.618000000    -5.455000000     0.340000000
H    -0.789000000    -6.186000000    -0.453000000
H    -0.566000000    -5.952000000     1.311000000
C     0.664000000    -4.706000000     0.121000000
C     1.052000000    -4.577000000    -1.248000000
H     0.395000000    -4.950000000    -2.030000000
C     1.594000000    -4.302000000     1.156000000
C     2.747000000    -3.643000000     0.791000000
H     3.337000000    -3.141000000     1.554000000
C     3.061000000    -3.459000000    -0.533000000
O     4.067000000    -2.562000000    -0.783000000
C     3.717000000    -1.205000000    -1.215000000
C     4.509000000    -0.094000000    -0.497000000
C     4.996000000     1.053000000    -1.103000000
H     4.833000000     1.208000000    -2.167000000
C     4.747000000    -0.277000000     0.861000000
H     4.246000000    -1.112000000     1.344000000
O     3.927000000    -1.133000000    -2.666000000
H     2.637000000    -1.121000000    -1.024000000
C     2.215000000    -3.910000000    -1.585000000
C     2.651000000    -3.737000000    -3.030000000
H     2.272000000    -4.531000000    -3.677000000
H     3.738000000    -3.833000000    -3.084000000
C     2.133000000    -2.402000000    -3.653000000
C     0.895000000    -2.459000000    -4.306000000
H     0.365000000    -3.399000000    -4.440000000
C     2.820000000    -1.204000000    -3.461000000
C     2.275000000     0.025000000    -3.946000000
H     2.740000000     0.994000000    -3.786000000
C     1.041000000    -0.038000000    -4.557000000
O     0.425000000     1.106000000    -5.030000000
C    -0.556000000     1.587000000    -4.166000000
C    -0.313000000     3.092000000    -4.023000000
C     0.934000000     3.563000000    -3.578000000
H     1.732000000     2.825000000    -3.585000000
C    -1.326000000     3.997000000    -4.074000000
H    -2.317000000     3.690000000    -4.398000000
O    -1.935000000     1.324000000    -4.638000000
H    -0.499000000     1.162000000    -3.153000000
C     0.361000000    -1.262000000    -4.809000000
C    -1.035000000    -1.334000000    -5.412000000
H    -1.155000000    -2.345000000    -5.808000000
H    -1.040000000    -0.716000000    -6.312000000
C    -2.248000000    -0.987000000    -4.482000000
C    -2.551000000     0.338000000    -4.123000000
C    -3.473000000     0.614000000    -3.091000000
H    -3.888000000     1.605000000    -2.923000000
C    -4.067000000    -0.412000000    -2.425000000
O    -4.776000000    -0.124000000    -1.312000000
C    -4.217000000    -0.357000000     0.002000000
H    -3.131000000    -0.345000000    -0.173000000
C    -4.375000000     0.835000000     0.940000000
C    -4.592000000     0.599000000     2.290000000
H    -4.651000000    -0.419000000     2.667000000
C    -4.138000000     2.104000000     0.386000000
H    -4.020000000     2.326000000    -0.672000000
C    -4.099000000     3.200000000     1.279000000
O    -3.821000000     4.544000000     0.931000000
C    -4.288000000     3.037000000     2.637000000
H    -4.360000000     3.878000000     3.322000000
C    -4.540000000     1.724000000     3.118000000
O    -4.935000000     1.455000000     4.404000000
C    -4.399000000     0.471000000     5.224000000
C    -2.993000000     0.327000000     5.440000000
H    -2.318000000     1.014000000     4.938000000
C    -5.239000000    -0.333000000     6.014000000
H    -6.316000000    -0.189000000     6.044000000
C    -4.727000000    -1.277000000     6.912000000
H    -5.397000000    -1.772000000     7.610000000
C    -3.360000000    -1.319000000     7.101000000
H    -2.968000000    -1.943000000     7.900000000
C    -2.509000000    -0.492000000     6.416000000
O    -1.178000000    -0.551000000     6.745000000
C    -0.270000000    -1.327000000     6.071000000
C     1.027000000    -1.447000000     6.570000000
H     1.196000000    -0.944000000     7.519000000
C     2.060000000    -2.051000000     5.876000000
O     3.356000000    -1.884000000     6.361000000
C     4.417000000    -1.747000000     5.473000000
C     4.539000000    -0.595000000     4.713000000
H     3.935000000     0.266000000     4.988000000
C     5.137000000    -2.902000000     5.100000000
H     5.079000000    -3.846000000     5.636000000
C     6.159000000    -2.813000000     4.174000000
H     6.758000000    -3.657000000     3.841000000
C     6.314000000    -1.641000000     3.428000000
H     7.058000000    -1.567000000     2.639000000
C     5.447000000    -0.508000000     3.688000000
O     5.406000000     0.681000000     2.950000000
C     5.390000000     0.714000000     1.558000000
C     5.814000000     1.891000000     0.987000000
H     6.184000000     2.702000000     1.609000000
C     5.568000000     2.064000000    -0.358000000
O     5.961000000     3.321000000    -0.917000000
C     5.478000000     3.776000000    -2.086000000
C     4.306000000     4.462000000    -1.869000000
H     3.879000000     4.533000000    -0.872000000
C     5.956000000     3.479000000    -3.333000000
H     6.911000000     2.966000000    -3.417000000
C     5.157000000     3.819000000    -4.450000000
H     5.460000000     3.580000000    -5.467000000
C     3.962000000     4.427000000    -4.246000000
H     3.265000000     4.579000000    -5.066000000
C     3.512000000     4.762000000    -2.966000000
O     2.315000000     5.332000000    -2.788000000
C     1.118000000     4.893000000    -3.228000000
C     0.035000000     5.691000000    -3.181000000
H     0.257000000     6.717000000    -2.898000000
C    -1.183000000     5.273000000    -3.617000000
O    -2.230000000     6.156000000    -3.332000000
C    -3.259000000     5.916000000    -2.468000000
C    -4.558000000     5.962000000    -2.886000000
H    -4.823000000     6.206000000    -3.912000000
C    -5.600000000     5.538000000    -2.082000000
H    -6.627000000     5.438000000    -2.424000000
C    -5.283000000     5.043000000    -0.788000000
H    -6.063000000     4.691000000    -0.117000000
C    -4.001000000     5.088000000    -0.286000000
C    -2.984000000     5.523000000    -1.136000000
H    -1.992000000     5.407000000    -0.707000000
C    -0.151000000     2.847000000    -0.479000000
H    -0.638000000     3.751000000    -0.835000000
C    -0.667000000     1.529000000    -0.608000000
H    -1.670000000     1.341000000    -0.983000000
C     0.104000000     0.473000000    -0.206000000
C    -0.435000000    -0.931000000    -0.474000000
H    -1.049000000    -0.851000000    -1.374000000
H     0.303000000    -1.715000000    -0.658000000
H    -1.110000000    -1.289000000     0.306000000
C     1.374000000     0.759000000     0.389000000
H     1.994000000    -0.046000000     0.774000000
C     1.840000000     2.063000000     0.546000000
H     2.860000000     2.173000000     0.907000000
C     1.058000000     3.098000000     0.125000000
C     1.531000000     4.543000000     0.310000000
O     2.552000000     4.810000000     0.946000000
O     0.798000000     5.449000000    -0.026000000
O     5.288000000     3.904000000     3.973000000
H     5.437000000     2.958000000     3.953000000
H     4.387000000     3.998000000     4.281000000
O     2.227000000     4.756000000     3.724000000
H     1.551000000     5.426000000     3.823000000
H     2.593000000     4.911000000     2.853000000
O     4.703000000     5.971000000     2.023000000
H     5.106000000     5.293000000     2.565000000
H     3.991000000     5.523000000     1.568000000
O    -2.058000000     6.599000000     1.831000000
H    -2.827000000     6.197000000     1.428000000
H    -1.615000000     5.877000000     2.276000000
O     3.375000000     7.684000000    -4.325000000
H     3.161000000     7.131000000    -3.574000000
H     2.840000000     8.468000000    -4.204000000
O     7.005000000     6.728000000    -0.110000000
H     6.061000000     6.597000000    -0.019000000
H     7.379000000     6.336000000     0.680000000
O     3.885000000    10.238000000    -0.276000000
H     4.465000000    10.014000000     0.452000000
H     3.100000000     9.709000000    -0.128000000
O    -0.643000000     7.639000000    -0.607000000
H     0.040000000     6.975000000    -0.511000000
H    -1.269000000     7.441000000     0.088000000
O     1.158000000    10.235000000     0.983000000
H     0.787000000    10.810000000     1.652000000
H     0.869000000     9.358000000     1.234000000
O     0.501000000     6.696000000     5.496000000
H     0.723000000     6.482000000     6.403000000
H    -0.295000000     6.194000000     5.320000000
O    -1.084000000     8.714000000     4.362000000
H    -1.470000000     8.987000000     5.195000000
H    -0.437000000     8.051000000     4.603000000
O     2.879000000     7.450000000    -0.686000000
H     3.052000000     6.674000000    -0.152000000
H     1.940000000     7.410000000    -0.869000000
O     5.782000000     9.256000000     1.625000000
H     5.639000000     9.464000000     2.549000000
H     5.609000000     8.317000000     1.561000000
O    -0.600000000     4.482000000     2.687000000
H    -0.349000000     3.618000000     2.362000000
H    -0.888000000     4.325000000     3.586000000
O     2.060000000     2.127000000     4.447000000
H     2.219000000     2.854000000     3.845000000
H     1.923000000     2.546000000     5.297000000
O    -2.251000000     8.885000000    -2.531000000
H    -2.811000000     8.340000000    -3.083000000
H    -1.479000000     8.345000000    -2.365000000
O    -0.257000000     1.736000000     2.785000000
H     0.555000000     1.878000000     3.271000000
H     0.028000000     1.380000000     1.943000000
O     3.253000000     7.853000000     3.291000000
H     3.896000000     7.258000000     2.906000000
H     2.480000000     7.764000000     2.733000000
O     0.670000000     7.409000000     2.199000000
H    -0.246000000     7.610000000     2.389000000
H     0.638000000     6.590000000     1.704000000
