218
-1479.70110
C     2.543000000    -1.755000000     3.744000000
H     3.160000000    -1.773000000     2.849000000
C     1.353000000    -2.406000000     3.797000000
C     0.631000000    -2.348000000     5.044000000
H    -0.330000000    -2.845000000     5.154000000
C     0.799000000    -3.101000000     2.577000000
O     1.852000000    -3.954000000     2.090000000
H     0.622000000    -2.308000000     1.835000000
O    -0.342000000    -3.945000000     2.844000000
C    -1.394000000    -4.063000000     1.852000000
C    -2.562000000    -3.345000000     2.117000000
H    -2.780000000    -2.913000000     3.091000000
C    -3.525000000    -3.336000000     1.092000000
O    -4.614000000    -2.465000000     1.282000000
C    -3.352000000    -3.933000000    -0.181000000
C    -4.281000000    -3.744000000    -1.390000000
H    -4.056000000    -4.598000000    -2.031000000
C    -3.883000000    -2.514000000    -2.111000000
C    -3.009000000    -2.565000000    -3.196000000
H    -2.574000000    -3.500000000    -3.542000000
H    -5.333000000    -3.788000000    -1.098000000
C    -2.147000000    -4.623000000    -0.417000000
H    -2.002000000    -5.155000000    -1.354000000
C    -1.183000000    -4.692000000     0.605000000
C     0.134000000    -5.495000000     0.435000000
H    -0.019000000    -6.306000000    -0.281000000
H     0.311000000    -5.973000000     1.401000000
C     1.296000000    -4.632000000    -0.112000000
C     1.428000000    -4.523000000    -1.507000000
H     0.737000000    -5.067000000    -2.146000000
C     2.150000000    -3.963000000     0.759000000
C     3.066000000    -3.155000000     0.186000000
H     3.611000000    -2.588000000     0.937000000
C     3.249000000    -3.044000000    -1.205000000
O     4.140000000    -2.150000000    -1.654000000
C     3.727000000    -0.768000000    -2.070000000
C     4.725000000     0.300000000    -1.722000000
C     4.946000000     1.430000000    -2.455000000
H     4.338000000     1.654000000    -3.328000000
C     5.407000000     0.194000000    -0.479000000
H     5.140000000    -0.632000000     0.175000000
O     3.558000000    -0.837000000    -3.464000000
H     2.794000000    -0.516000000    -1.544000000
C     2.435000000    -3.749000000    -2.099000000
C     2.457000000    -3.622000000    -3.617000000
H     1.977000000    -4.525000000    -3.999000000
H     3.478000000    -3.545000000    -3.997000000
C     1.700000000    -2.387000000    -4.048000000
C     0.362000000    -2.488000000    -4.372000000
H    -0.013000000    -3.508000000    -4.412000000
C     2.265000000    -1.084000000    -4.004000000
C     1.503000000     0.067000000    -4.325000000
H     1.903000000     1.077000000    -4.324000000
C     0.209000000    -0.069000000    -4.639000000
O    -0.537000000     1.048000000    -4.807000000
C    -1.451000000     1.355000000    -3.786000000
C    -1.347000000     2.777000000    -3.320000000
C    -0.041000000     3.312000000    -3.056000000
H     0.818000000     2.846000000    -3.531000000
C    -2.458000000     3.493000000    -2.810000000
H    -3.489000000     3.187000000    -2.968000000
O    -2.730000000     0.948000000    -4.146000000
H    -1.169000000     0.734000000    -2.922000000
C    -0.407000000    -1.345000000    -4.684000000
C    -1.828000000    -1.509000000    -5.174000000
H    -1.942000000    -2.562000000    -5.440000000
H    -2.211000000    -0.757000000    -5.867000000
C    -2.746000000    -1.430000000    -3.964000000
C    -3.204000000    -0.213000000    -3.552000000
C    -4.083000000    -0.108000000    -2.502000000
H    -4.472000000     0.845000000    -2.151000000
C    -4.404000000    -1.232000000    -1.743000000
O    -5.091000000    -0.969000000    -0.559000000
C    -4.318000000    -1.120000000     0.716000000
H    -3.268000000    -1.171000000     0.393000000
C    -4.431000000    -0.010000000     1.724000000
C    -3.729000000     0.035000000     2.939000000
H    -3.004000000    -0.728000000     3.206000000
C    -5.062000000     1.195000000     1.269000000
H    -5.551000000     1.194000000     0.299000000
C    -5.190000000     2.363000000     2.041000000
O    -5.864000000     3.486000000     1.662000000
C    -4.626000000     2.313000000     3.297000000
H    -4.612000000     3.156000000     3.984000000
C    -3.832000000     1.216000000     3.670000000
O    -3.045000000     1.523000000     4.772000000
C    -2.668000000     0.632000000     5.843000000
C    -1.324000000     0.108000000     5.885000000
H    -0.559000000     0.334000000     5.146000000
C    -3.552000000     0.478000000     6.968000000
H    -4.505000000     0.998000000     7.037000000
C    -3.152000000    -0.283000000     8.084000000
H    -3.843000000    -0.495000000     8.896000000
C    -1.896000000    -0.847000000     8.051000000
H    -1.644000000    -1.471000000     8.904000000
C    -0.952000000    -0.607000000     7.016000000
O     0.258000000    -1.262000000     7.119000000
C     1.050000000    -1.483000000     6.043000000
C     2.318000000    -0.800000000     5.928000000
H     2.593000000    -0.160000000     6.763000000
C     3.076000000    -1.012000000     4.809000000
O     4.147000000    -0.135000000     4.734000000
C     5.217000000    -0.407000000     3.894000000
C     5.544000000     0.540000000     2.948000000
H     4.889000000     1.388000000     2.763000000
C     5.948000000    -1.486000000     4.208000000
H     5.641000000    -2.120000000     5.036000000
C     7.045000000    -1.778000000     3.450000000
H     7.571000000    -2.728000000     3.475000000
C     7.313000000    -0.979000000     2.339000000
H     8.010000000    -1.292000000     1.566000000
C     6.647000000     0.234000000     2.128000000
O     6.975000000     1.049000000     1.034000000
C     6.280000000     1.202000000    -0.053000000
C     6.479000000     2.311000000    -0.834000000
H     7.196000000     3.105000000    -0.646000000
C     5.826000000     2.401000000    -2.048000000
O     5.885000000     3.554000000    -2.864000000
C     4.766000000     4.218000000    -3.181000000
C     3.699000000     4.307000000    -2.213000000
H     3.778000000     3.691000000    -1.321000000
C     4.756000000     4.973000000    -4.355000000
H     5.645000000     4.953000000    -4.980000000
C     3.556000000     5.524000000    -4.778000000
H     3.432000000     5.944000000    -5.773000000
C     2.402000000     5.396000000    -3.964000000
H     1.404000000     5.616000000    -4.333000000
C     2.478000000     4.782000000    -2.675000000
O     1.405000000     4.805000000    -1.853000000
C     0.140000000     4.428000000    -2.312000000
C    -0.948000000     5.181000000    -1.940000000
H    -0.735000000     6.079000000    -1.365000000
C    -2.266000000     4.738000000    -2.193000000
O    -3.294000000     5.516000000    -1.903000000
C    -4.483000000     5.038000000    -1.462000000
C    -5.653000000     5.308000000    -2.142000000
H    -5.716000000     5.696000000    -3.156000000
C    -6.895000000     4.845000000    -1.597000000
H    -7.787000000     5.047000000    -2.185000000
C    -6.947000000     4.223000000    -0.331000000
H    -7.885000000     3.921000000     0.128000000
C    -5.748000000     3.985000000     0.355000000
C    -4.536000000     4.387000000    -0.192000000
H    -3.663000000     4.070000000     0.372000000
C    -1.079000000     1.834000000     1.290000000
H    -1.948000000     2.485000000     1.346000000
C    -1.034000000     0.984000000     0.187000000
H    -1.696000000     1.066000000    -0.671000000
C    -0.003000000     0.082000000     0.030000000
C     0.123000000    -0.766000000    -1.237000000
H     0.570000000    -1.732000000    -0.994000000
H    -0.745000000    -0.871000000    -1.891000000
H     0.789000000    -0.137000000    -1.832000000
C     1.006000000     0.046000000     0.957000000
H     1.791000000    -0.691000000     0.808000000
C     1.029000000     0.900000000     2.067000000
H     1.871000000     0.891000000     2.755000000
C    -0.054000000     1.839000000     2.243000000
C    -0.154000000     2.869000000     3.293000000
O     0.464000000     2.770000000     4.339000000
O    -0.758000000     3.902000000     3.148000000
O     5.486000000     4.041000000     2.815000000
H     4.835000000     4.260000000     3.481000000
H     5.231000000     4.558000000     2.051000000
O     0.146000000     3.236000000     6.932000000
H     0.393000000     3.023000000     6.032000000
H     0.980000000     3.356000000     7.386000000
O    -1.830000000     7.365000000     4.194000000
H    -1.773000000     6.493000000     4.585000000
H    -2.744000000     7.445000000     3.920000000
O     3.078000000     2.573000000     4.516000000
H     3.451000000     1.699000000     4.634000000
H     2.132000000     2.431000000     4.515000000
O     4.308000000     6.192000000     1.270000000
H     4.497000000     6.894000000     1.893000000
H     3.410000000     6.360000000     0.985000000
O    -1.993000000     3.459000000     8.850000000
H    -1.976000000     2.690000000     9.419000000
H    -1.262000000     3.327000000     8.247000000
O    -3.997000000     6.957000000     1.459000000
H    -4.506000000     6.818000000     0.661000000
H    -4.651000000     7.006000000     2.156000000
O    -6.041000000     6.554000000     3.347000000
H    -6.795000000     5.982000000     3.210000000
H    -5.432000000     6.028000000     3.864000000
O    -1.278000000     5.921000000     1.441000000
H    -1.023000000     5.048000000     1.740000000
H    -2.097000000     6.102000000     1.901000000
O    -3.336000000    -2.821000000     5.484000000
H    -4.146000000    -2.330000000     5.354000000
H    -2.648000000    -2.240000000     5.159000000
O     3.077000000     7.401000000     6.950000000
H     3.172000000     6.883000000     6.150000000
H     3.546000000     8.215000000     6.765000000
O    -0.516000000     8.573000000    -0.110000000
H     0.231000000     8.719000000    -0.690000000
H    -0.277000000     7.798000000     0.399000000
O     1.661000000     6.293000000     0.573000000
H     1.728000000     5.755000000    -0.215000000
H     0.844000000     6.011000000     0.986000000
O    -0.527000000     9.016000000     5.729000000
H    -0.813000000     8.240000000     5.248000000
H    -0.515000000     8.739000000     6.645000000
O     0.946000000     5.833000000     3.878000000
H     0.527000000     4.975000000     3.816000000
H     0.422000000     6.397000000     3.309000000
O     5.945000000     5.067000000     5.675000000
H     6.199000000     4.157000000     5.522000000
H     5.068000000     5.137000000     5.300000000
O    -4.381000000     5.333000000     5.189000000
H    -3.438000000     5.258000000     5.331000000
H    -4.746000000     5.452000000     6.066000000
O    -1.802000000     4.832000000     5.435000000
H    -1.083000000     4.760000000     6.063000000
H    -1.462000000     4.434000000     4.634000000
O     3.528000000     5.067000000     4.498000000
H     3.442000000     4.126000000     4.652000000
H     2.646000000     5.351000000     4.257000000
