218
-1468.15254
C     3.348000000    -2.639000000     4.009000000
H     4.007000000    -3.115000000     3.289000000
C     1.968000000    -2.685000000     3.899000000
C     1.213000000    -1.986000000     4.826000000
H     0.127000000    -2.002000000     4.783000000
C     1.288000000    -3.231000000     2.775000000
O     2.162000000    -4.138000000     2.050000000
H     0.990000000    -2.404000000     2.114000000
O     0.022000000    -3.862000000     3.129000000
C    -0.960000000    -3.867000000     2.147000000
C    -1.981000000    -3.013000000     2.496000000
H    -1.927000000    -2.340000000     3.348000000
C    -3.118000000    -2.967000000     1.688000000
O    -4.049000000    -2.027000000     2.028000000
C    -3.198000000    -3.603000000     0.448000000
C    -4.298000000    -3.455000000    -0.572000000
H    -4.300000000    -4.378000000    -1.156000000
C    -4.112000000    -2.265000000    -1.444000000
C    -3.519000000    -2.466000000    -2.701000000
H    -3.226000000    -3.453000000    -3.052000000
H    -5.274000000    -3.342000000    -0.094000000
C    -2.068000000    -4.328000000     0.042000000
H    -1.965000000    -4.772000000    -0.945000000
C    -1.040000000    -4.554000000     0.949000000
C     0.024000000    -5.553000000     0.622000000
H    -0.434000000    -6.251000000    -0.081000000
H     0.396000000    -6.084000000     1.500000000
C     1.209000000    -4.784000000    -0.063000000
C     1.227000000    -4.681000000    -1.438000000
H     0.456000000    -5.144000000    -2.049000000
C     2.144000000    -4.090000000     0.686000000
C     3.082000000    -3.251000000     0.102000000
H     3.764000000    -2.656000000     0.703000000
C     3.069000000    -3.121000000    -1.265000000
O     3.870000000    -2.140000000    -1.784000000
C     3.090000000    -0.976000000    -2.203000000
C     3.883000000     0.251000000    -1.758000000
C     4.152000000     1.275000000    -2.650000000
H     3.721000000     1.306000000    -3.648000000
C     4.243000000     0.358000000    -0.403000000
H     3.975000000    -0.419000000     0.309000000
O     2.859000000    -0.998000000    -3.577000000
H     2.140000000    -1.007000000    -1.650000000
C     2.094000000    -3.746000000    -2.045000000
C     2.058000000    -3.592000000    -3.560000000
H     1.628000000    -4.531000000    -3.915000000
H     3.092000000    -3.529000000    -3.906000000
C     1.127000000    -2.407000000    -4.073000000
C    -0.292000000    -2.535000000    -4.136000000
H    -0.689000000    -3.536000000    -3.991000000
C     1.650000000    -1.150000000    -4.157000000
C     0.973000000    -0.031000000    -4.532000000
H     1.408000000     0.960000000    -4.432000000
C    -0.420000000    -0.149000000    -4.772000000
O    -1.202000000     1.026000000    -4.956000000
C    -1.878000000     1.485000000    -3.709000000
C    -1.752000000     2.947000000    -3.557000000
C    -0.526000000     3.514000000    -3.884000000
H     0.176000000     2.813000000    -4.329000000
C    -2.719000000     3.675000000    -2.915000000
H    -3.654000000     3.206000000    -2.621000000
O    -3.244000000     1.066000000    -3.807000000
H    -1.414000000     0.986000000    -2.846000000
C    -0.996000000    -1.415000000    -4.584000000
C    -2.465000000    -1.562000000    -4.818000000
H    -2.543000000    -2.566000000    -5.241000000
H    -2.760000000    -0.833000000    -5.576000000
C    -3.204000000    -1.396000000    -3.496000000
C    -3.655000000    -0.066000000    -3.060000000
C    -4.281000000     0.065000000    -1.865000000
H    -4.533000000     1.092000000    -1.615000000
C    -4.545000000    -0.978000000    -1.008000000
O    -4.872000000    -0.683000000     0.299000000
C    -3.922000000    -0.685000000     1.340000000
H    -2.942000000    -0.762000000     0.847000000
C    -4.013000000     0.561000000     2.219000000
C    -3.331000000     0.511000000     3.432000000
H    -2.850000000    -0.414000000     3.737000000
C    -4.708000000     1.701000000     1.888000000
H    -5.196000000     1.782000000     0.920000000
C    -4.710000000     2.785000000     2.736000000
O    -5.185000000     4.039000000     2.397000000
C    -4.101000000     2.752000000     3.987000000
H    -3.813000000     3.585000000     4.622000000
C    -3.520000000     1.520000000     4.362000000
O    -2.946000000     1.511000000     5.581000000
C    -2.391000000     0.444000000     6.185000000
C    -1.018000000     0.526000000     6.433000000
H    -0.466000000     1.433000000     6.202000000
C    -3.049000000    -0.723000000     6.402000000
H    -4.132000000    -0.713000000     6.309000000
C    -2.408000000    -1.907000000     6.843000000
H    -2.902000000    -2.855000000     7.039000000
C    -1.006000000    -1.784000000     7.095000000
H    -0.455000000    -2.589000000     7.573000000
C    -0.307000000    -0.582000000     6.843000000
O     1.089000000    -0.547000000     6.813000000
C     1.781000000    -1.231000000     5.852000000
C     3.182000000    -1.122000000     5.968000000
H     3.707000000    -0.550000000     6.729000000
C     3.972000000    -1.882000000     5.043000000
O     5.302000000    -1.649000000     4.969000000
C     5.878000000    -1.166000000     3.838000000
C     5.376000000    -0.053000000     3.166000000
H     4.390000000     0.352000000     3.380000000
C     7.244000000    -1.569000000     3.577000000
H     7.659000000    -2.418000000     4.115000000
C     7.911000000    -1.065000000     2.463000000
H     8.831000000    -1.419000000     2.007000000
C     7.346000000     0.026000000     1.726000000
H     7.863000000     0.439000000     0.863000000
C     6.051000000     0.435000000     1.998000000
O     5.485000000     1.489000000     1.327000000
C     5.091000000     1.360000000     0.053000000
C     5.424000000     2.358000000    -0.861000000
H     6.045000000     3.209000000    -0.596000000
C     4.906000000     2.421000000    -2.110000000
O     5.085000000     3.574000000    -2.802000000
C     4.183000000     4.010000000    -3.746000000
C     2.940000000     4.373000000    -3.467000000
H     2.700000000     4.535000000    -2.419000000
C     4.709000000     4.133000000    -5.028000000
H     5.750000000     3.904000000    -5.245000000
C     3.848000000     4.723000000    -5.952000000
H     4.172000000     4.886000000    -6.977000000
C     2.575000000     5.172000000    -5.656000000
H     2.012000000     5.737000000    -6.394000000
C     2.072000000     4.914000000    -4.422000000
O     0.889000000     5.448000000    -3.999000000
C    -0.302000000     4.867000000    -3.655000000
C    -1.210000000     5.548000000    -2.853000000
H    -0.913000000     6.519000000    -2.466000000
C    -2.432000000     4.975000000    -2.532000000
O    -3.384000000     5.714000000    -1.777000000
C    -4.420000000     5.063000000    -1.045000000
C    -5.639000000     4.969000000    -1.654000000
H    -5.765000000     5.351000000    -2.664000000
C    -6.805000000     4.500000000    -0.945000000
H    -7.737000000     4.281000000    -1.460000000
C    -6.616000000     4.086000000     0.430000000
H    -7.445000000     3.707000000     1.022000000
C    -5.358000000     4.343000000     1.059000000
C    -4.291000000     4.808000000     0.293000000
H    -3.349000000     4.989000000     0.806000000
C    -0.743000000     2.314000000     1.426000000
H    -1.228000000     3.277000000     1.564000000
C    -1.096000000     1.385000000     0.398000000
H    -1.940000000     1.570000000    -0.262000000
C    -0.219000000     0.319000000     0.125000000
C    -0.579000000    -0.755000000    -0.903000000
H    -1.535000000    -0.515000000    -1.374000000
H     0.130000000    -0.859000000    -1.727000000
H    -0.716000000    -1.683000000    -0.343000000
C     0.868000000     0.069000000     0.979000000
H     1.519000000    -0.795000000     0.876000000
C     1.057000000     0.853000000     2.046000000
H     1.874000000     0.535000000     2.689000000
C     0.284000000     2.010000000     2.300000000
C     0.518000000     2.895000000     3.515000000
O     1.570000000     2.710000000     4.134000000
O    -0.156000000     3.883000000     3.841000000
O     1.560000000     5.968000000    -0.531000000
H     1.463000000     5.020000000    -0.438000000
H     1.376000000     6.314000000     0.343000000
O     1.969000000     2.229000000     6.586000000
H     2.020000000     2.627000000     5.717000000
H     1.557000000     1.378000000     6.436000000
O    -1.216000000     5.790000000     2.619000000
H    -0.959000000     5.032000000     3.144000000
H    -0.389000000     6.152000000     2.300000000
O    -2.803000000     8.061000000     5.829000000
H    -1.936000000     8.431000000     5.995000000
H    -2.801000000     7.227000000     6.299000000
O     4.285000000     2.858000000     4.271000000
H     4.218000000     3.402000000     5.055000000
H     3.399000000     2.849000000     3.909000000
O     5.214000000     6.658000000     3.761000000
H     4.601000000     7.228000000     4.227000000
H     6.062000000     6.836000000     4.168000000
O     2.819000000     4.130000000     1.933000000
H     2.725000000     5.082000000     1.917000000
H     2.279000000     3.848000000     2.671000000
O     0.225000000     4.108000000     8.083000000
H    -0.487000000     4.106000000     7.443000000
H     0.953000000     3.679000000     7.632000000
O    -1.736000000     3.846000000     6.201000000
H    -1.334000000     3.780000000     5.335000000
H    -2.058000000     2.963000000     6.384000000
O     7.364000000     2.824000000     3.883000000
H     7.978000000     2.206000000     3.486000000
H     6.560000000     2.319000000     4.005000000
O    -3.822000000     6.787000000     3.237000000
H    -3.572000000     7.374000000     3.951000000
H    -2.990000000     6.508000000     2.854000000
O     1.597000000     3.278000000    -0.394000000
H     2.418000000     3.119000000     0.071000000
H     1.005000000     2.596000000    -0.076000000
O     4.077000000     1.658000000     8.170000000
H     4.348000000     2.502000000     8.531000000
H     3.257000000     1.846000000     7.713000000
O     1.639000000     6.502000000     2.087000000
H     1.902000000     6.429000000     3.005000000
H     2.268000000     7.114000000     1.705000000
O    -3.839000000     5.366000000     6.607000000
H    -3.026000000     5.044000000     6.218000000
H    -3.825000000     5.032000000     7.504000000
O     1.778000000     5.542000000     4.489000000
H     1.109000000     4.857000000     4.467000000
H     2.548000000     5.113000000     4.863000000
O     0.785000000     7.954000000     6.217000000
H     0.839000000     7.175000000     5.662000000
H     0.752000000     8.685000000     5.600000000
O     5.737000000     4.472000000     1.713000000
H     5.462000000     3.561000000     1.817000000
H     5.654000000     4.850000000     2.589000000
O     4.074000000     4.760000000     6.332000000
H     3.802000000     5.229000000     7.121000000
H     5.028000000     4.837000000     6.324000000
