218
-1483.52342
C     2.827000000    -2.724000000     3.767000000
H     3.545000000    -2.951000000     2.983000000
C     1.520000000    -2.954000000     3.527000000
C     0.602000000    -2.672000000     4.554000000
H    -0.454000000    -2.832000000     4.351000000
C     1.089000000    -3.654000000     2.218000000
O     2.043000000    -4.474000000     1.598000000
H     0.806000000    -2.842000000     1.532000000
O    -0.091000000    -4.441000000     2.442000000
C    -1.103000000    -4.285000000     1.521000000
C    -2.169000000    -3.440000000     1.839000000
H    -2.218000000    -3.022000000     2.841000000
C    -3.150000000    -3.094000000     0.937000000
O    -4.070000000    -2.114000000     1.220000000
C    -3.082000000    -3.594000000    -0.339000000
C    -4.154000000    -3.236000000    -1.370000000
H    -4.353000000    -4.067000000    -2.049000000
C    -3.859000000    -1.960000000    -2.121000000
C    -3.110000000    -1.966000000    -3.326000000
H    -2.777000000    -2.945000000    -3.661000000
H    -5.127000000    -3.134000000    -0.887000000
C    -2.013000000    -4.485000000    -0.703000000
H    -2.001000000    -4.908000000    -1.705000000
C    -1.060000000    -4.852000000     0.252000000
C     0.217000000    -5.657000000    -0.221000000
H    -0.025000000    -6.295000000    -1.074000000
H     0.436000000    -6.510000000     0.425000000
C     1.379000000    -4.731000000    -0.625000000
C     1.456000000    -4.230000000    -1.923000000
H     0.765000000    -4.588000000    -2.683000000
C     2.194000000    -4.182000000     0.310000000
C     3.220000000    -3.261000000    -0.019000000
H     3.949000000    -2.907000000     0.706000000
C     3.341000000    -2.804000000    -1.361000000
O     4.213000000    -1.836000000    -1.683000000
C     3.652000000    -0.517000000    -1.960000000
C     4.571000000     0.611000000    -1.437000000
C     4.818000000     1.835000000    -2.102000000
H     4.400000000     1.913000000    -3.103000000
C     5.002000000     0.472000000    -0.103000000
H     4.829000000    -0.478000000     0.396000000
O     3.476000000    -0.309000000    -3.397000000
H     2.637000000    -0.496000000    -1.537000000
C     2.417000000    -3.326000000    -2.344000000
C     2.454000000    -2.964000000    -3.782000000
H     1.983000000    -3.647000000    -4.492000000
H     3.445000000    -2.850000000    -4.226000000
C     1.611000000    -1.730000000    -4.063000000
C     0.317000000    -1.790000000    -4.492000000
H    -0.103000000    -2.791000000    -4.561000000
C     2.181000000    -0.506000000    -3.883000000
C     1.493000000     0.663000000    -4.159000000
H     1.922000000     1.633000000    -3.918000000
C     0.153000000     0.589000000    -4.600000000
O    -0.582000000     1.731000000    -4.707000000
C    -1.400000000     1.965000000    -3.550000000
C    -1.234000000     3.419000000    -3.101000000
C    -0.030000000     4.153000000    -3.173000000
H     0.780000000     3.600000000    -3.642000000
C    -2.388000000     4.061000000    -2.611000000
H    -3.373000000     3.601000000    -2.607000000
O    -2.749000000     1.568000000    -3.940000000
H    -1.034000000     1.327000000    -2.732000000
C    -0.421000000    -0.691000000    -4.766000000
C    -1.887000000    -0.811000000    -5.164000000
H    -1.990000000    -1.709000000    -5.778000000
H    -2.132000000    -0.029000000    -5.886000000
C    -2.783000000    -0.775000000    -3.971000000
C    -3.286000000     0.419000000    -3.458000000
C    -3.923000000     0.491000000    -2.235000000
H    -4.069000000     1.437000000    -1.720000000
C    -4.199000000    -0.715000000    -1.609000000
O    -4.868000000    -0.597000000    -0.389000000
C    -3.966000000    -0.795000000     0.728000000
H    -2.910000000    -0.613000000     0.480000000
C    -4.307000000     0.187000000     1.834000000
C    -4.143000000    -0.176000000     3.141000000
H    -3.813000000    -1.178000000     3.405000000
C    -4.835000000     1.434000000     1.533000000
H    -5.021000000     1.730000000     0.504000000
C    -5.117000000     2.352000000     2.509000000
O    -5.443000000     3.655000000     2.234000000
C    -4.880000000     2.046000000     3.877000000
H    -5.136000000     2.681000000     4.721000000
C    -4.366000000     0.778000000     4.162000000
O    -4.299000000     0.374000000     5.500000000
C    -3.531000000    -0.620000000     6.033000000
C    -2.097000000    -0.575000000     5.883000000
H    -1.633000000     0.102000000     5.170000000
C    -4.024000000    -1.450000000     6.986000000
H    -5.100000000    -1.406000000     7.138000000
C    -3.192000000    -2.341000000     7.655000000
H    -3.554000000    -3.076000000     8.370000000
C    -1.776000000    -2.246000000     7.546000000
H    -1.106000000    -2.858000000     8.145000000
C    -1.254000000    -1.428000000     6.557000000
O     0.114000000    -1.261000000     6.474000000
C     1.003000000    -1.986000000     5.691000000
C     2.328000000    -1.714000000     5.883000000
H     2.696000000    -1.035000000     6.648000000
C     3.275000000    -2.176000000     4.981000000
O     4.621000000    -1.893000000     5.135000000
C     5.468000000    -1.601000000     4.043000000
C     5.305000000    -0.335000000     3.511000000
H     4.590000000     0.354000000     3.954000000
C     6.338000000    -2.535000000     3.440000000
H     6.510000000    -3.546000000     3.802000000
C     7.222000000    -2.164000000     2.422000000
H     7.894000000    -2.861000000     1.927000000
C     7.092000000    -0.913000000     1.937000000
H     7.648000000    -0.546000000     1.078000000
C     6.169000000     0.039000000     2.435000000
O     6.030000000     1.295000000     1.880000000
C     5.714000000     1.428000000     0.517000000
C     5.984000000     2.626000000    -0.089000000
H     6.564000000     3.318000000     0.516000000
C     5.456000000     2.873000000    -1.381000000
O     5.561000000     4.123000000    -1.901000000
C     4.627000000     4.586000000    -2.793000000
C     3.502000000     5.175000000    -2.233000000
H     3.470000000     5.237000000    -1.148000000
C     4.752000000     4.508000000    -4.186000000
H     5.690000000     4.122000000    -4.577000000
C     3.673000000     4.847000000    -5.021000000
H     3.731000000     4.668000000    -6.092000000
C     2.554000000     5.391000000    -4.442000000
H     1.725000000     5.650000000    -5.096000000
C     2.482000000     5.548000000    -3.077000000
O     1.351000000     5.980000000    -2.454000000
C     0.121000000     5.401000000    -2.622000000
C    -0.952000000     5.919000000    -1.895000000
H    -0.806000000     6.878000000    -1.404000000
C    -2.231000000     5.317000000    -1.972000000
O    -3.325000000     5.977000000    -1.328000000
C    -4.407000000     5.314000000    -0.845000000
C    -5.528000000     5.102000000    -1.640000000
H    -5.517000000     5.500000000    -2.652000000
C    -6.598000000     4.341000000    -1.200000000
H    -7.447000000     4.071000000    -1.822000000
C    -6.614000000     3.910000000     0.128000000
H    -7.543000000     3.528000000     0.545000000
C    -5.483000000     4.139000000     0.925000000
C    -4.359000000     4.785000000     0.425000000
H    -3.475000000     4.885000000     1.049000000
C    -1.298000000     2.751000000     2.105000000
H    -1.768000000     3.730000000     2.052000000
C    -1.157000000     1.944000000     0.961000000
H    -1.583000000     2.333000000     0.039000000
C    -0.403000000     0.776000000     1.060000000
C    -0.003000000     0.037000000    -0.217000000
H     0.583000000     0.637000000    -0.917000000
H     0.620000000    -0.847000000    -0.067000000
H    -0.869000000    -0.375000000    -0.740000000
C     0.039000000     0.307000000     2.269000000
H     0.497000000    -0.676000000     2.346000000
C    -0.095000000     1.062000000     3.415000000
H     0.299000000     0.692000000     4.359000000
C    -0.722000000     2.360000000     3.349000000
C    -0.717000000     3.193000000     4.567000000
O     0.041000000     2.921000000     5.468000000
O    -1.297000000     4.238000000     4.587000000
O     1.576000000     6.388000000     0.709000000
H     1.235000000     6.057000000     1.540000000
H     1.584000000     5.625000000     0.132000000
O     1.595000000     1.383000000     7.383000000
H     1.186000000     1.622000000     6.551000000
H     0.889000000     1.453000000     8.026000000
O    -2.709000000     5.725000000     8.610000000
H    -2.409000000     4.916000000     8.195000000
H    -2.137000000     6.404000000     8.252000000
O     4.085000000     2.219000000     7.291000000
H     4.726000000     1.633000000     7.693000000
H     3.241000000     1.798000000     7.451000000
O     2.544000000     3.146000000     5.043000000
H     1.640000000     2.839000000     5.113000000
H     2.942000000     2.911000000     5.882000000
O     0.286000000     3.804000000    10.339000000
H     1.149000000     4.217000000    10.296000000
H    -0.016000000     3.785000000     9.432000000
O    -0.580000000     8.997000000     3.969000000
H    -0.089000000     8.347000000     4.471000000
H    -0.153000000     9.011000000     3.113000000
O     0.076000000     6.114000000     3.063000000
H     0.582000000     6.661000000     3.663000000
H    -0.295000000     5.428000000     3.619000000
O    -0.833000000     6.262000000     6.395000000
H    -1.115000000     5.560000000     5.809000000
H    -0.059000000     5.911000000     6.835000000
O     1.361000000     5.224000000     7.795000000
H     1.918000000     5.459000000     8.538000000
H     1.969000000     5.123000000     7.063000000
O    -3.633000000     5.648000000     5.108000000
H    -2.872000000     5.090000000     4.948000000
H    -3.385000000     6.180000000     5.864000000
O     3.184000000     2.857000000     2.369000000
H     2.824000000     2.968000000     3.249000000
H     4.059000000     2.495000000     2.512000000
O     1.401000000     3.518000000     0.339000000
H     0.580000000     3.067000000     0.540000000
H     1.997000000     3.254000000     1.040000000
O    -3.629000000     1.236000000     8.738000000
H    -3.525000000     0.602000000     8.029000000
H    -3.057000000     0.913000000     9.434000000
O    -1.586000000     3.524000000     7.680000000
H    -1.306000000     3.581000000     6.767000000
H    -1.905000000     2.627000000     7.778000000
O    -2.498000000     6.923000000     2.097000000
H    -1.650000000     6.577000000     2.374000000
H    -2.556000000     7.780000000     2.518000000
O     1.623000000     7.543000000     5.228000000
H     2.300000000     6.907000000     4.996000000
H     1.900000000     7.887000000     6.078000000
O    -0.156000000     1.085000000     9.444000000
H     0.184000000     1.666000000    10.124000000
H    -0.979000000     0.753000000     9.802000000
O     3.548000000     5.848000000     4.662000000
H     3.380000000     4.906000000     4.678000000
H     4.434000000     5.928000000     4.310000000
