218
-1464.81200
C     3.667000000    -1.802000000     2.470000000
H     4.158000000    -1.940000000     1.511000000
C     2.419000000    -2.412000000     2.828000000
C     1.980000000    -2.021000000     4.083000000
H     1.085000000    -2.456000000     4.521000000
C     1.557000000    -3.248000000     1.976000000
O     2.325000000    -4.067000000     1.088000000
H     1.080000000    -2.464000000     1.369000000
O     0.588000000    -4.039000000     2.767000000
C    -0.684000000    -4.164000000     2.264000000
C    -1.629000000    -3.419000000     2.943000000
H    -1.265000000    -3.032000000     3.891000000
C    -2.890000000    -3.224000000     2.441000000
O    -3.583000000    -2.187000000     2.993000000
C    -3.256000000    -3.798000000     1.223000000
C    -4.537000000    -3.408000000     0.456000000
H    -4.816000000    -4.251000000    -0.180000000
C    -4.383000000    -2.103000000    -0.324000000
C    -4.074000000    -2.246000000    -1.694000000
H    -4.078000000    -3.247000000    -2.119000000
H    -5.352000000    -3.150000000     1.135000000
C    -2.301000000    -4.570000000     0.540000000
H    -2.489000000    -4.899000000    -0.479000000
C    -1.038000000    -4.751000000     1.034000000
C    -0.020000000    -5.553000000     0.284000000
H    -0.524000000    -6.190000000    -0.445000000
H     0.530000000    -6.273000000     0.894000000
C     0.851000000    -4.723000000    -0.657000000
C     0.461000000    -4.575000000    -1.972000000
H    -0.551000000    -4.883000000    -2.220000000
C     2.065000000    -4.139000000    -0.198000000
C     2.854000000    -3.402000000    -1.027000000
H     3.741000000    -2.908000000    -0.639000000
C     2.396000000    -3.098000000    -2.338000000
O     3.127000000    -2.104000000    -3.025000000
C     2.594000000    -0.736000000    -3.085000000
C     3.782000000     0.265000000    -3.003000000
C     3.642000000     1.541000000    -3.525000000
H     2.719000000     1.728000000    -4.068000000
C     4.946000000    -0.034000000    -2.295000000
H     5.234000000    -1.017000000    -1.931000000
O     1.889000000    -0.620000000    -4.301000000
H     1.898000000    -0.596000000    -2.245000000
C     1.228000000    -3.717000000    -2.794000000
C     0.748000000    -3.390000000    -4.206000000
H     0.156000000    -4.249000000    -4.528000000
H     1.585000000    -3.321000000    -4.904000000
C    -0.030000000    -2.095000000    -4.319000000
C    -1.464000000    -2.200000000    -4.211000000
H    -1.943000000    -3.130000000    -3.915000000
C     0.565000000    -0.843000000    -4.302000000
C    -0.266000000     0.217000000    -4.325000000
H     0.170000000     1.207000000    -4.438000000
C    -1.657000000     0.095000000    -4.403000000
O    -2.387000000     1.317000000    -4.292000000
C    -2.702000000     1.674000000    -2.903000000
C    -2.455000000     3.182000000    -2.696000000
C    -1.265000000     3.754000000    -3.194000000
H    -0.702000000     3.192000000    -3.934000000
C    -3.293000000     3.972000000    -1.893000000
H    -4.203000000     3.525000000    -1.503000000
O    -4.067000000     1.340000000    -2.646000000
H    -1.950000000     1.206000000    -2.251000000
C    -2.309000000    -1.093000000    -4.274000000
C    -3.808000000    -1.154000000    -3.994000000
H    -4.153000000    -2.139000000    -4.314000000
H    -4.395000000    -0.477000000    -4.618000000
C    -4.070000000    -1.069000000    -2.497000000
C    -4.202000000     0.175000000    -1.929000000
C    -4.410000000     0.316000000    -0.611000000
H    -4.459000000     1.314000000    -0.184000000
C    -4.412000000    -0.810000000     0.219000000
O    -4.670000000    -0.750000000     1.530000000
C    -3.559000000    -0.873000000     2.362000000
H    -2.694000000    -0.748000000     1.694000000
C    -3.431000000     0.254000000     3.454000000
C    -3.214000000    -0.056000000     4.782000000
H    -3.169000000    -1.062000000     5.193000000
C    -3.372000000     1.610000000     3.018000000
H    -3.425000000     1.832000000     1.956000000
C    -3.104000000     2.611000000     4.003000000
O    -3.227000000     3.995000000     3.702000000
C    -2.901000000     2.225000000     5.311000000
H    -2.835000000     3.046000000     6.020000000
C    -2.831000000     0.916000000     5.730000000
O    -2.408000000     0.547000000     6.988000000
C    -1.387000000    -0.361000000     7.044000000
C    -0.106000000    -0.123000000     6.543000000
H     0.086000000     0.817000000     6.033000000
C    -1.646000000    -1.603000000     7.616000000
H    -2.675000000    -1.692000000     7.956000000
C    -0.696000000    -2.606000000     7.667000000
H    -0.933000000    -3.637000000     7.918000000
C     0.587000000    -2.391000000     7.157000000
H     1.383000000    -3.131000000     7.171000000
C     0.870000000    -1.133000000     6.627000000
O     2.087000000    -0.900000000     6.136000000
C     2.607000000    -1.161000000     4.929000000
C     3.839000000    -0.638000000     4.606000000
H     4.434000000    -0.010000000     5.265000000
C     4.407000000    -0.969000000     3.292000000
O     5.575000000    -0.355000000     2.822000000
C     6.360000000    -0.595000000     1.707000000
C     6.347000000     0.223000000     0.590000000
H     5.610000000     1.018000000     0.515000000
C     7.342000000    -1.606000000     1.672000000
H     7.491000000    -2.167000000     2.591000000
C     8.205000000    -1.786000000     0.673000000
H     8.951000000    -2.574000000     0.739000000
C     8.176000000    -0.993000000    -0.488000000
H     8.788000000    -1.209000000    -1.360000000
C     7.242000000     0.012000000    -0.429000000
O     7.164000000     0.716000000    -1.606000000
C     5.999000000     0.939000000    -2.234000000
C     5.942000000     2.049000000    -3.007000000
H     6.874000000     2.602000000    -3.093000000
C     4.697000000     2.451000000    -3.541000000
O     4.617000000     3.653000000    -4.121000000
C     3.372000000     4.212000000    -4.546000000
C     2.439000000     4.644000000    -3.650000000
H     2.500000000     4.440000000    -2.584000000
C     3.305000000     4.485000000    -5.907000000
H     4.197000000     4.168000000    -6.441000000
C     2.157000000     5.096000000    -6.423000000
H     1.961000000     5.244000000    -7.483000000
C     1.145000000     5.392000000    -5.545000000
H     0.210000000     5.701000000    -6.006000000
C     1.319000000     5.310000000    -4.171000000
O     0.355000000     5.757000000    -3.234000000
C    -0.827000000     5.065000000    -2.839000000
C    -1.662000000     5.800000000    -2.040000000
H    -1.463000000     6.829000000    -1.752000000
C    -2.886000000     5.309000000    -1.626000000
O    -3.556000000     6.050000000    -0.677000000
C    -4.159000000     5.503000000     0.411000000
C    -5.545000000     5.198000000     0.385000000
H    -6.160000000     5.338000000    -0.500000000
C    -6.091000000     4.591000000     1.503000000
H    -7.162000000     4.411000000     1.548000000
C    -5.339000000     4.111000000     2.577000000
H    -5.785000000     3.520000000     3.373000000
C    -3.932000000     4.362000000     2.542000000
C    -3.380000000     5.116000000     1.493000000
H    -2.316000000     5.324000000     1.413000000
C     0.040000000     2.579000000     1.445000000
H    -0.599000000     3.451000000     1.564000000
C    -0.340000000     1.492000000     0.673000000
H    -1.350000000     1.428000000     0.276000000
C     0.459000000     0.450000000     0.398000000
C    -0.097000000    -0.613000000    -0.500000000
H     0.527000000    -1.505000000    -0.586000000
H    -1.118000000    -0.897000000    -0.235000000
H    -0.123000000    -0.170000000    -1.498000000
C     1.774000000     0.381000000     0.857000000
H     2.382000000    -0.470000000     0.561000000
C     2.240000000     1.466000000     1.683000000
H     3.244000000     1.425000000     2.096000000
C     1.342000000     2.561000000     1.923000000
C     1.778000000     3.753000000     2.783000000
O     2.844000000     3.767000000     3.350000000
O     1.040000000     4.705000000     2.970000000
O     7.170000000     4.503000000    -0.482000000
H     6.503000000     4.144000000     0.103000000
H     6.723000000     4.601000000    -1.323000000
O     1.200000000     4.589000000    -0.573000000
H     0.367000000     4.971000000    -0.297000000
H     0.973000000     3.705000000    -0.862000000
O     1.261000000     7.468000000    -0.744000000
H     1.244000000     6.644000000    -1.232000000
H     0.658000000     7.327000000    -0.015000000
O    -1.584000000     5.692000000     6.872000000
H    -1.610000000     5.997000000     5.965000000
H    -1.589000000     6.495000000     7.394000000
O     3.123000000     6.252000000     6.495000000
H     3.865000000     6.499000000     7.047000000
H     3.229000000     5.311000000     6.357000000
O     7.838000000     2.245000000     4.260000000
H     7.035000000     2.766000000     4.253000000
H     7.606000000     1.454000000     4.747000000
O    -0.180000000     6.429000000     1.418000000
H    -0.594000000     7.054000000     2.014000000
H     0.158000000     5.740000000     1.991000000
O     5.962000000     5.932000000     2.522000000
H     6.061000000     5.617000000     1.624000000
H     5.076000000     6.291000000     2.555000000
O     5.556000000     4.002000000     4.498000000
H     6.076000000     4.588000000     3.948000000
H     4.659000000     4.109000000     4.182000000
O     0.422000000     3.838000000     6.191000000
H     0.050000000     4.719000000     6.158000000
H     0.087000000     3.467000000     7.007000000
O     3.379000000     5.855000000     0.164000000
H     3.344000000     6.317000000     1.002000000
H     2.539000000     5.400000000     0.106000000
O     0.462000000     9.515000000     4.986000000
H     0.263000000     9.464000000     5.921000000
H     0.700000000     8.620000000     4.743000000
O     3.212000000     6.391000000     2.817000000
H     2.882000000     6.969000000     3.505000000
H     2.965000000     5.512000000     3.105000000
O     5.286000000     3.270000000     1.364000000
H     4.586000000     2.897000000     0.830000000
H     4.831000000     3.719000000     2.077000000
O     0.906000000     6.674000000     4.804000000
H     1.588000000     6.409000000     5.421000000
H     0.751000000     5.895000000     4.269000000
O     2.516000000     2.202000000     5.634000000
H     1.769000000     2.793000000     5.728000000
H     2.744000000     2.249000000     4.706000000
O     5.198000000     6.153000000    -1.938000000
H     4.584000000     5.765000000    -1.315000000
H     5.648000000     6.834000000    -1.439000000
O     4.505000000     3.659000000     7.242000000
H     4.859000000     3.329000000     6.417000000
H     4.109000000     2.892000000     7.657000000
O     3.142000000     1.082000000     7.988000000
H     2.770000000     1.348000000     7.147000000
H     3.141000000     0.125000000     7.958000000
