218
-1435.82424
C     3.651000000    -1.766000000     3.611000000
H     3.912000000    -2.548000000     2.902000000
C     2.328000000    -1.707000000     3.918000000
C     1.881000000    -0.754000000     4.851000000
H     0.816000000    -0.666000000     5.049000000
C     1.307000000    -2.533000000     3.152000000
O     1.915000000    -3.797000000     2.634000000
H     0.878000000    -1.889000000     2.370000000
O     0.153000000    -2.820000000     3.971000000
C    -1.103000000    -2.865000000     3.416000000
C    -2.067000000    -1.888000000     3.808000000
H    -1.837000000    -1.259000000     4.665000000
C    -3.210000000    -1.702000000     3.073000000
O    -3.967000000    -0.587000000     3.346000000
C    -3.598000000    -2.624000000     2.065000000
C    -4.904000000    -2.413000000     1.183000000
H    -5.240000000    -3.400000000     0.859000000
C    -4.619000000    -1.563000000    -0.054000000
C    -4.327000000    -2.138000000    -1.315000000
H    -4.197000000    -3.217000000    -1.318000000
H    -5.720000000    -2.023000000     1.795000000
C    -2.801000000    -3.729000000     1.824000000
H    -3.058000000    -4.402000000     1.010000000
C    -1.542000000    -3.818000000     2.483000000
C    -0.630000000    -5.033000000     2.089000000
H    -1.298000000    -5.803000000     1.699000000
H    -0.124000000    -5.354000000     3.001000000
C     0.381000000    -4.731000000     1.015000000
C     0.038000000    -4.846000000    -0.269000000
H    -0.944000000    -5.192000000    -0.581000000
C     1.618000000    -4.165000000     1.373000000
C     2.523000000    -3.898000000     0.385000000
H     3.519000000    -3.528000000     0.615000000
C     2.090000000    -3.942000000    -0.917000000
O     2.932000000    -3.297000000    -1.780000000
C     2.499000000    -2.005000000    -2.429000000
C     3.693000000    -1.039000000    -2.467000000
C     3.639000000    -0.064000000    -3.439000000
H     2.797000000    -0.012000000    -4.124000000
C     4.734000000    -1.116000000    -1.541000000
H     4.769000000    -1.870000000    -0.759000000
O     1.981000000    -2.209000000    -3.729000000
H     1.723000000    -1.541000000    -1.801000000
C     0.877000000    -4.425000000    -1.307000000
C     0.557000000    -4.651000000    -2.762000000
H    -0.225000000    -5.403000000    -2.888000000
H     1.433000000    -4.967000000    -3.331000000
C    -0.025000000    -3.385000000    -3.388000000
C    -1.403000000    -3.266000000    -3.434000000
H    -1.964000000    -4.063000000    -2.951000000
C     0.644000000    -2.274000000    -3.854000000
C    -0.018000000    -1.197000000    -4.505000000
H     0.639000000    -0.432000000    -4.910000000
C    -1.391000000    -1.141000000    -4.528000000
O    -2.027000000     0.065000000    -4.835000000
C    -2.359000000     0.949000000    -3.651000000
C    -1.837000000     2.289000000    -3.868000000
C    -0.863000000     2.603000000    -4.806000000
H    -0.403000000     1.817000000    -5.400000000
C    -2.343000000     3.329000000    -3.086000000
H    -2.997000000     3.171000000    -2.232000000
O    -3.743000000     0.860000000    -3.290000000
H    -1.779000000     0.586000000    -2.790000000
C    -2.153000000    -2.156000000    -3.931000000
C    -3.691000000    -1.958000000    -3.718000000
H    -4.131000000    -2.946000000    -3.871000000
H    -4.046000000    -1.354000000    -4.555000000
C    -4.058000000    -1.317000000    -2.436000000
C    -4.118000000     0.030000000    -2.257000000
C    -4.420000000     0.613000000    -1.005000000
H    -4.388000000     1.693000000    -0.890000000
C    -4.600000000    -0.148000000     0.093000000
O    -4.642000000     0.509000000     1.337000000
C    -3.619000000     0.460000000     2.325000000
H    -2.674000000     0.277000000     1.792000000
C    -3.335000000     1.873000000     2.867000000
C    -2.635000000     1.990000000     4.059000000
H    -2.327000000     1.118000000     4.630000000
C    -3.615000000     2.945000000     2.072000000
H    -4.092000000     2.882000000     1.097000000
C    -3.278000000     4.204000000     2.550000000
O    -3.654000000     5.424000000     1.929000000
C    -2.786000000     4.358000000     3.830000000
H    -2.514000000     5.344000000     4.198000000
C    -2.429000000     3.251000000     4.563000000
O    -1.827000000     3.403000000     5.820000000
C    -1.006000000     2.508000000     6.466000000
C     0.273000000     2.281000000     6.000000000
H     0.681000000     2.862000000     5.177000000
C    -1.523000000     1.791000000     7.475000000
H    -2.602000000     1.870000000     7.575000000
C    -0.778000000     0.992000000     8.273000000
H    -1.224000000     0.513000000     9.141000000
C     0.537000000     0.717000000     7.839000000
H     1.062000000    -0.056000000     8.395000000
C     1.062000000     1.323000000     6.692000000
O     2.375000000     1.113000000     6.333000000
C     2.782000000     0.075000000     5.562000000
C     4.129000000    -0.025000000     5.168000000
H     4.761000000     0.696000000     5.681000000
C     4.572000000    -0.919000000     4.213000000
O     5.869000000    -1.051000000     3.919000000
C     6.408000000    -1.420000000     2.698000000
C     6.439000000    -0.520000000     1.646000000
H     6.194000000     0.538000000     1.696000000
C     6.840000000    -2.723000000     2.515000000
H     6.691000000    -3.429000000     3.328000000
C     7.319000000    -3.132000000     1.251000000
H     7.598000000    -4.160000000     1.034000000
C     7.349000000    -2.222000000     0.219000000
H     7.488000000    -2.541000000    -0.810000000
C     6.928000000    -0.914000000     0.410000000
O     6.860000000    -0.150000000    -0.655000000
C     5.713000000    -0.092000000    -1.540000000
C     5.704000000     0.873000000    -2.594000000
H     6.524000000     1.584000000    -2.666000000
C     4.729000000     0.861000000    -3.563000000
O     4.691000000     1.847000000    -4.492000000
C     3.660000000     2.019000000    -5.270000000
C     2.702000000     3.089000000    -5.145000000
H     2.652000000     3.710000000    -4.254000000
C     3.563000000     1.241000000    -6.405000000
H     4.361000000     0.507000000    -6.481000000
C     2.462000000     1.309000000    -7.274000000
H     2.310000000     0.627000000    -8.107000000
C     1.509000000     2.287000000    -7.010000000
H     0.684000000     2.404000000    -7.707000000
C     1.668000000     3.203000000    -6.005000000
O     0.694000000     4.102000000    -5.807000000
C    -0.399000000     3.933000000    -5.012000000
C    -1.030000000     4.977000000    -4.288000000
H    -0.730000000     5.968000000    -4.621000000
C    -1.892000000     4.642000000    -3.279000000
O    -2.524000000     5.717000000    -2.669000000
C    -3.445000000     5.647000000    -1.652000000
C    -4.817000000     5.770000000    -1.959000000
H    -5.081000000     5.860000000    -3.010000000
C    -5.767000000     5.535000000    -1.022000000
H    -6.806000000     5.541000000    -1.342000000
C    -5.394000000     5.526000000     0.304000000
H    -6.143000000     5.463000000     1.089000000
C    -4.015000000     5.602000000     0.620000000
C    -3.039000000     5.587000000    -0.340000000
H    -2.005000000     5.448000000    -0.035000000
C     0.124000000     3.229000000     1.039000000
H    -0.439000000     4.159000000     1.007000000
C    -0.537000000     2.093000000     0.646000000
H    -1.553000000     2.245000000     0.290000000
C     0.156000000     0.905000000     0.610000000
C    -0.450000000    -0.289000000     0.072000000
H    -0.429000000    -1.084000000     0.820000000
H    -1.515000000    -0.069000000    -0.027000000
H     0.082000000    -0.661000000    -0.806000000
C     1.455000000     0.871000000     1.025000000
H     2.010000000    -0.058000000     0.924000000
C     2.053000000     1.983000000     1.545000000
H     3.101000000     1.966000000     1.832000000
C     1.380000000     3.225000000     1.567000000
C     2.058000000     4.504000000     1.895000000
O     3.268000000     4.612000000     1.735000000
O     1.391000000     5.503000000     1.963000000
O     4.628000000     6.690000000     5.977000000
H     3.793000000     6.374000000     5.631000000
H     4.651000000     6.366000000     6.878000000
O     4.377000000     7.022000000     1.922000000
H     3.874000000     6.287000000     1.573000000
H     3.737000000     7.540000000     2.410000000
O     2.432000000     6.170000000    -0.854000000
H     3.283000000     6.132000000    -1.290000000
H     2.523000000     5.589000000    -0.099000000
O    -3.022000000     8.484000000     2.017000000
H    -2.070000000     8.405000000     1.966000000
H    -3.302000000     7.703000000     2.494000000
O     1.855000000     9.684000000     0.363000000
H     1.929000000     9.473000000    -0.568000000
H     1.356000000    10.501000000     0.385000000
O     7.016000000     6.148000000     2.544000000
H     6.117000000     6.367000000     2.298000000
H     7.367000000     5.684000000     1.784000000
O     2.436000000     8.892000000     3.068000000
H     1.759000000     9.244000000     3.647000000
H     2.156000000     9.149000000     2.189000000
O     4.572000000     4.423000000     4.146000000
H     4.417000000     5.330000000     4.409000000
H     4.172000000     4.353000000     3.279000000
O     4.174000000     3.672000000    -0.620000000
H     3.954000000     3.863000000     0.292000000
H     3.333000000     3.478000000    -1.034000000
O     6.955000000     3.880000000    -0.842000000
H     7.311000000     3.693000000     0.027000000
H     6.007000000     3.902000000    -0.713000000
O     2.078000000     2.517000000    -1.746000000
H     2.152000000     1.935000000    -2.502000000
H     1.488000000     2.058000000    -1.147000000
O    -0.624000000     7.253000000     2.864000000
H    -0.657000000     7.324000000     3.818000000
H     0.163000000     6.736000000     2.689000000
O    -0.634000000     6.402000000     5.693000000
H    -0.772000000     5.986000000     6.544000000
H    -1.300000000     7.087000000     5.650000000
O     7.106000000     6.034000000     5.219000000
H     7.105000000     5.955000000     4.265000000
H     6.209000000     6.286000000     5.439000000
O    -0.121000000     7.223000000    -0.313000000
H     0.660000000     6.952000000    -0.794000000
H     0.116000000     7.117000000     0.608000000
O     6.393000000     3.091000000     5.392000000
H     6.805000000     3.950000000     5.485000000
H     5.704000000     3.225000000     4.741000000
O     1.975000000     6.258000000     4.690000000
H     1.930000000     6.250000000     3.734000000
H     1.061000000     6.222000000     4.973000000
O     4.780000000     5.761000000    -2.543000000
H     5.699000000     6.008000000    -2.445000000
H     4.670000000     5.012000000    -1.957000000
O     4.453000000     8.901000000     0.050000000
H     3.617000000     9.299000000     0.295000000
H     4.578000000     8.196000000     0.686000000
