218
-1485.84963
C     2.596000000    -2.653000000     3.794000000
H     2.878000000    -3.432000000     3.091000000
C     1.240000000    -2.192000000     3.950000000
C     1.032000000    -1.055000000     4.735000000
H     0.007000000    -0.724000000     4.880000000
C     0.198000000    -2.874000000     3.148000000
O     0.582000000    -4.203000000     2.774000000
H     0.031000000    -2.281000000     2.236000000
O    -1.062000000    -2.911000000     3.856000000
C    -2.179000000    -2.616000000     3.122000000
C    -2.756000000    -1.422000000     3.398000000
H    -2.367000000    -0.807000000     4.205000000
C    -3.846000000    -0.948000000     2.700000000
O    -4.138000000     0.410000000     2.928000000
C    -4.407000000    -1.743000000     1.655000000
C    -5.463000000    -1.141000000     0.811000000
H    -6.088000000    -1.945000000     0.415000000
C    -4.822000000    -0.396000000    -0.369000000
C    -4.540000000    -1.107000000    -1.515000000
H    -4.842000000    -2.142000000    -1.660000000
H    -6.146000000    -0.578000000     1.452000000
C    -3.850000000    -3.025000000     1.418000000
H    -4.291000000    -3.702000000     0.691000000
C    -2.745000000    -3.448000000     2.135000000
C    -2.212000000    -4.787000000     1.703000000
H    -2.957000000    -5.295000000     1.087000000
H    -2.029000000    -5.267000000     2.667000000
C    -0.969000000    -4.719000000     0.839000000
C    -1.038000000    -4.929000000    -0.557000000
H    -2.014000000    -5.156000000    -0.979000000
C     0.303000000    -4.510000000     1.450000000
C     1.388000000    -4.332000000     0.562000000
H     2.318000000    -3.978000000     0.999000000
C     1.262000000    -4.368000000    -0.803000000
O     2.397000000    -3.843000000    -1.427000000
C     2.321000000    -2.602000000    -2.221000000
C     3.610000000    -1.778000000    -2.192000000
C     4.086000000    -1.061000000    -3.298000000
H     3.576000000    -1.185000000    -4.250000000
C     4.412000000    -1.761000000    -1.117000000
H     4.050000000    -2.295000000    -0.243000000
O     1.745000000    -2.816000000    -3.492000000
H     1.589000000    -2.009000000    -1.653000000
C     0.055000000    -4.788000000    -1.390000000
C    -0.144000000    -4.795000000    -2.874000000
H    -0.933000000    -5.502000000    -3.140000000
H     0.819000000    -5.132000000    -3.264000000
C    -0.526000000    -3.436000000    -3.341000000
C    -1.862000000    -3.085000000    -3.555000000
H    -2.651000000    -3.797000000    -3.330000000
C     0.446000000    -2.480000000    -3.634000000
C     0.087000000    -1.227000000    -4.098000000
H     0.895000000    -0.613000000    -4.485000000
C    -1.251000000    -0.868000000    -4.320000000
O    -1.449000000     0.417000000    -4.788000000
C    -1.650000000     1.349000000    -3.722000000
C    -0.886000000     2.643000000    -3.980000000
C     0.394000000     2.649000000    -4.600000000
H     0.747000000     1.724000000    -5.049000000
C    -1.362000000     3.813000000    -3.373000000
H    -2.255000000     3.875000000    -2.757000000
O    -3.043000000     1.544000000    -3.560000000
H    -1.354000000     1.065000000    -2.702000000
C    -2.263000000    -1.784000000    -3.926000000
C    -3.749000000    -1.310000000    -3.869000000
H    -4.387000000    -2.195000000    -3.820000000
H    -4.076000000    -0.722000000    -4.728000000
C    -3.949000000    -0.460000000    -2.609000000
C    -3.698000000     0.920000000    -2.524000000
C    -4.015000000     1.645000000    -1.408000000
H    -3.785000000     2.701000000    -1.289000000
C    -4.464000000     0.964000000    -0.299000000
O    -4.575000000     1.623000000     0.947000000
C    -3.641000000     1.354000000     2.004000000
H    -2.760000000     0.922000000     1.506000000
C    -3.216000000     2.646000000     2.689000000
C    -2.808000000     2.619000000     4.016000000
H    -2.680000000     1.743000000     4.647000000
C    -3.191000000     3.817000000     1.958000000
H    -3.366000000     3.744000000     0.888000000
C    -2.756000000     5.017000000     2.513000000
O    -2.677000000     6.174000000     1.790000000
C    -2.364000000     5.027000000     3.840000000
H    -1.946000000     5.906000000     4.324000000
C    -2.269000000     3.834000000     4.586000000
O    -1.726000000     3.832000000     5.864000000
C    -1.186000000     2.672000000     6.402000000
C     0.047000000     2.212000000     6.012000000
H     0.605000000     2.822000000     5.306000000
C    -1.884000000     1.965000000     7.377000000
H    -2.890000000     2.290000000     7.627000000
C    -1.349000000     0.883000000     7.996000000
H    -1.832000000     0.403000000     8.843000000
C    -0.164000000     0.329000000     7.545000000
H     0.388000000    -0.464000000     8.044000000
C     0.533000000     1.091000000     6.624000000
O     1.833000000     0.659000000     6.217000000
C     2.061000000    -0.413000000     5.368000000
C     3.335000000    -0.886000000     5.232000000
H     4.110000000    -0.392000000     5.812000000
C     3.621000000    -2.004000000     4.450000000
O     4.948000000    -2.513000000     4.473000000
C     5.545000000    -2.726000000     3.278000000
C     5.620000000    -1.790000000     2.278000000
H     5.026000000    -0.893000000     2.430000000
C     6.261000000    -3.912000000     3.260000000
H     6.218000000    -4.654000000     4.053000000
C     6.954000000    -4.225000000     2.137000000
H     7.440000000    -5.194000000     2.054000000
C     7.009000000    -3.311000000     1.091000000
H     7.538000000    -3.612000000     0.190000000
C     6.414000000    -2.021000000     1.171000000
O     6.470000000    -1.121000000     0.129000000
C     5.679000000    -1.082000000    -1.044000000
C     6.022000000    -0.185000000    -2.101000000
H     6.992000000     0.302000000    -2.043000000
C     5.231000000    -0.237000000    -3.274000000
O     5.624000000     0.391000000    -4.452000000
C     4.716000000     0.945000000    -5.331000000
C     3.782000000     1.835000000    -4.814000000
H     3.796000000     2.060000000    -3.751000000
C     4.862000000     0.661000000    -6.655000000
H     5.628000000     0.039000000    -7.111000000
C     4.064000000     1.471000000    -7.524000000
H     4.339000000     1.357000000    -8.569000000
C     3.290000000     2.508000000    -7.043000000
H     2.785000000     3.159000000    -7.751000000
C     3.112000000     2.676000000    -5.700000000
O     2.415000000     3.833000000    -5.284000000
C     1.193000000     3.827000000    -4.663000000
C     0.741000000     4.933000000    -3.932000000
H     1.328000000     5.831000000    -3.757000000
C    -0.530000000     5.010000000    -3.371000000
O    -0.862000000     6.117000000    -2.692000000
C    -2.007000000     6.228000000    -1.841000000
C    -3.280000000     6.177000000    -2.356000000
H    -3.469000000     6.099000000    -3.423000000
C    -4.386000000     6.207000000    -1.501000000
H    -5.408000000     6.180000000    -1.869000000
C    -4.215000000     6.118000000    -0.101000000
H    -5.012000000     6.054000000     0.636000000
C    -2.925000000     6.191000000     0.432000000
C    -1.882000000     6.208000000    -0.455000000
H    -0.869000000     6.216000000    -0.062000000
C     0.133000000     3.148000000     0.369000000
H    -0.077000000     4.084000000    -0.142000000
C    -0.525000000     2.005000000    -0.074000000
H    -1.066000000     2.077000000    -1.014000000
C    -0.451000000     0.763000000     0.563000000
C    -0.906000000    -0.535000000    -0.060000000
H    -0.782000000    -0.476000000    -1.143000000
H    -0.276000000    -1.340000000     0.325000000
H    -1.966000000    -0.763000000     0.063000000
C     0.353000000     0.675000000     1.697000000
H     0.366000000    -0.281000000     2.215000000
C     0.997000000     1.841000000     2.210000000
H     1.594000000     1.864000000     3.118000000
C     0.864000000     3.107000000     1.552000000
C     1.462000000     4.387000000     2.076000000
O     1.930000000     4.408000000     3.234000000
O     1.140000000     5.431000000     1.568000000
O     6.343000000     4.200000000    -1.314000000
H     5.816000000     4.850000000    -0.848000000
H     5.704000000     3.576000000    -1.658000000
O     5.609000000     8.655000000     3.386000000
H     5.314000000     8.457000000     2.497000000
H     5.153000000     8.018000000     3.937000000
O     1.910000000     5.668000000    -0.969000000
H     1.739000000     5.473000000    -0.047000000
H     1.554000000     4.917000000    -1.443000000
O     2.243000000     7.661000000     2.604000000
H     1.817000000     7.754000000     3.456000000
H     1.809000000     6.909000000     2.201000000
O     3.353000000     3.135000000     6.583000000
H     3.176000000     2.200000000     6.681000000
H     3.231000000     3.495000000     7.462000000
O     0.375000000     8.731000000     4.910000000
H     1.009000000     9.274000000     5.377000000
H    -0.321000000     9.338000000     4.659000000
O     1.738000000     5.736000000     6.268000000
H     1.619000000     5.564000000     5.334000000
H     2.207000000     4.969000000     6.595000000
O     5.334000000     2.593000000     1.195000000
H     5.071000000     2.894000000     2.065000000
H     5.847000000     3.317000000     0.836000000
O     1.467000000     8.400000000    -1.862000000
H     1.289000000     8.796000000    -1.008000000
H     1.552000000     7.465000000    -1.680000000
O     6.816000000     4.806000000     4.985000000
H     6.984000000     3.986000000     5.449000000
H     5.897000000     5.001000000     5.168000000
O     4.731000000     6.415000000    -0.825000000
H     4.723000000     6.991000000    -0.061000000
H     3.810000000     6.197000000    -0.970000000
O     3.789000000     2.496000000    -1.020000000
H     2.917000000     2.286000000    -0.686000000
H     4.374000000     2.343000000    -0.278000000
O    -1.760000000     8.843000000     1.878000000
H    -1.230000000     8.751000000     1.086000000
H    -2.200000000     7.998000000     1.972000000
O     1.136000000     9.616000000     0.673000000
H     0.909000000    10.461000000     1.062000000
H     1.122000000     9.003000000     1.408000000
O     4.078000000     9.142000000     1.026000000
H     3.642000000     9.425000000     0.222000000
H     3.413000000     8.639000000     1.495000000
O     4.109000000     7.336000000     5.597000000
H     4.575000000     6.927000000     6.326000000
H     3.191000000     7.107000000     5.741000000
O     4.373000000     3.564000000     3.957000000
H     3.498000000     3.773000000     3.628000000
H     4.224000000     3.239000000     4.845000000
O     4.677000000     6.163000000     2.405000000
H     3.761000000     6.423000000     2.500000000
H     4.716000000     5.282000000     2.777000000
O     7.445000000     5.904000000     1.803000000
H     6.592000000     6.276000000     1.579000000
H     7.415000000     5.789000000     2.753000000
