218
-1431.43606
C     2.423000000    -3.336000000     3.505000000
H     2.516000000    -4.126000000     2.764000000
C     1.198000000    -2.922000000     4.091000000
C     1.294000000    -1.993000000     5.109000000
H     0.361000000    -1.572000000     5.476000000
C    -0.093000000    -3.292000000     3.363000000
O     0.086000000    -4.594000000     2.710000000
H    -0.142000000    -2.595000000     2.513000000
O    -1.357000000    -3.287000000     4.064000000
C    -2.392000000    -2.600000000     3.504000000
C    -2.487000000    -1.234000000     3.783000000
H    -1.827000000    -0.756000000     4.502000000
C    -3.259000000    -0.405000000     3.048000000
O    -3.328000000     0.967000000     3.258000000
C    -4.163000000    -1.079000000     2.119000000
C    -5.312000000    -0.440000000     1.341000000
H    -6.006000000    -1.194000000     0.965000000
C    -4.782000000     0.300000000     0.141000000
C    -4.840000000    -0.272000000    -1.172000000
H    -5.140000000    -1.315000000    -1.115000000
H    -5.940000000     0.156000000     2.007000000
C    -3.983000000    -2.432000000     1.792000000
H    -4.666000000    -2.884000000     1.077000000
C    -3.130000000    -3.253000000     2.525000000
C    -2.770000000    -4.690000000     2.166000000
H    -3.689000000    -5.165000000     1.815000000
H    -2.469000000    -5.241000000     3.060000000
C    -1.713000000    -4.591000000     1.090000000
C    -2.118000000    -4.559000000    -0.266000000
H    -3.162000000    -4.555000000    -0.569000000
C    -0.315000000    -4.578000000     1.445000000
C     0.604000000    -4.569000000     0.403000000
H     1.660000000    -4.592000000     0.661000000
C     0.187000000    -4.410000000    -0.911000000
O     1.197000000    -4.200000000    -1.882000000
C     1.362000000    -2.877000000    -2.481000000
C     2.774000000    -2.402000000    -2.609000000
C     3.236000000    -1.340000000    -3.447000000
H     2.440000000    -0.840000000    -3.993000000
C     3.764000000    -3.047000000    -1.909000000
H     3.556000000    -3.959000000    -1.355000000
O     0.722000000    -2.932000000    -3.768000000
H     0.924000000    -2.099000000    -1.838000000
C    -1.147000000    -4.472000000    -1.257000000
C    -1.549000000    -4.503000000    -2.790000000
H    -2.492000000    -5.046000000    -2.875000000
H    -0.890000000    -5.177000000    -3.341000000
C    -1.645000000    -3.136000000    -3.415000000
C    -2.852000000    -2.491000000    -3.358000000
H    -3.742000000    -2.990000000    -2.983000000
C    -0.568000000    -2.422000000    -3.914000000
C    -0.652000000    -1.138000000    -4.361000000
H     0.215000000    -0.579000000    -4.702000000
C    -1.832000000    -0.434000000    -4.193000000
O    -1.785000000     1.012000000    -4.467000000
C    -1.867000000     1.953000000    -3.382000000
C    -0.949000000     3.155000000    -3.566000000
C     0.183000000     2.981000000    -4.325000000
H     0.365000000     2.091000000    -4.921000000
C    -1.134000000     4.307000000    -2.881000000
H    -2.038000000     4.465000000    -2.298000000
O    -3.229000000     2.365000000    -3.097000000
H    -1.537000000     1.433000000    -2.470000000
C    -2.946000000    -1.115000000    -3.719000000
C    -4.269000000    -0.331000000    -3.613000000
H    -5.088000000    -1.051000000    -3.663000000
H    -4.385000000     0.387000000    -4.428000000
C    -4.285000000     0.355000000    -2.243000000
C    -3.892000000     1.671000000    -2.096000000
C    -3.997000000     2.374000000    -0.820000000
H    -3.604000000     3.374000000    -0.654000000
C    -4.458000000     1.641000000     0.292000000
O    -4.196000000     2.076000000     1.604000000
C    -2.914000000     1.770000000     2.121000000
H    -2.444000000     1.075000000     1.410000000
C    -1.947000000     2.887000000     2.612000000
C    -0.733000000     2.575000000     3.279000000
H    -0.532000000     1.586000000     3.682000000
C    -2.159000000     4.233000000     2.273000000
H    -3.021000000     4.480000000     1.659000000
C    -1.127000000     5.161000000     2.553000000
O    -1.344000000     6.487000000     2.127000000
C     0.067000000     4.846000000     3.188000000
H     0.794000000     5.639000000     3.344000000
C     0.353000000     3.489000000     3.477000000
O     1.432000000     3.191000000     4.300000000
C     1.245000000     2.438000000     5.447000000
C     2.040000000     1.299000000     5.607000000
H     2.789000000     1.128000000     4.839000000
C     0.151000000     2.676000000     6.338000000
H    -0.459000000     3.569000000     6.229000000
C    -0.110000000     1.855000000     7.419000000
H    -0.965000000     2.029000000     8.067000000
C     0.696000000     0.700000000     7.523000000
H     0.490000000     0.032000000     8.355000000
C     1.773000000     0.426000000     6.653000000
O     2.545000000    -0.706000000     6.726000000
C     2.451000000    -1.589000000     5.700000000
C     3.596000000    -2.072000000     5.182000000
H     4.564000000    -1.799000000     5.594000000
C     3.621000000    -2.956000000     4.111000000
O     4.801000000    -3.466000000     3.790000000
C     5.077000000    -4.072000000     2.578000000
C     5.167000000    -3.378000000     1.376000000
H     4.994000000    -2.314000000     1.516000000
C     5.289000000    -5.408000000     2.528000000
H     5.288000000    -6.041000000     3.412000000
C     5.529000000    -6.039000000     1.286000000
H     5.642000000    -7.115000000     1.186000000
C     5.740000000    -5.322000000     0.099000000
H     5.992000000    -5.848000000    -0.818000000
C     5.612000000    -3.889000000     0.233000000
O     5.923000000    -3.059000000    -0.912000000
C     5.023000000    -2.443000000    -1.778000000
C     5.471000000    -1.435000000    -2.591000000
H     6.516000000    -1.134000000    -2.614000000
C     4.514000000    -0.837000000    -3.424000000
O     5.033000000     0.027000000    -4.383000000
C     4.142000000     0.716000000    -5.178000000
C     3.528000000     1.831000000    -4.683000000
H     3.661000000     2.157000000    -3.654000000
C     4.008000000     0.386000000    -6.552000000
H     4.636000000    -0.387000000    -6.987000000
C     3.352000000     1.276000000    -7.426000000
H     3.321000000     1.067000000    -8.493000000
C     2.809000000     2.487000000    -6.941000000
H     2.266000000     3.223000000    -7.528000000
C     2.873000000     2.759000000    -5.547000000
O     2.263000000     3.957000000    -5.131000000
C     1.054000000     4.105000000    -4.475000000
C     0.798000000     5.301000000    -3.872000000
H     1.588000000     6.043000000    -3.799000000
C    -0.261000000     5.417000000    -2.991000000
O    -0.516000000     6.726000000    -2.570000000
C    -1.339000000     6.989000000    -1.529000000
C    -2.586000000     7.612000000    -1.677000000
H    -2.824000000     7.884000000    -2.702000000
C    -3.320000000     8.005000000    -0.565000000
H    -4.221000000     8.607000000    -0.657000000
C    -2.842000000     7.647000000     0.689000000
H    -3.275000000     8.081000000     1.586000000
C    -1.700000000     6.801000000     0.855000000
C    -0.883000000     6.558000000    -0.262000000
H     0.094000000     6.081000000    -0.243000000
C     0.734000000     2.268000000    -0.176000000
H     0.364000000     3.214000000    -0.564000000
C    -0.208000000     1.297000000    -0.146000000
H    -1.201000000     1.612000000    -0.457000000
C     0.053000000     0.028000000     0.309000000
C    -1.067000000    -0.989000000     0.265000000
H    -1.922000000    -0.576000000    -0.274000000
H    -0.902000000    -1.953000000    -0.221000000
H    -1.379000000    -1.195000000     1.291000000
C     1.319000000    -0.381000000     0.730000000
H     1.631000000    -1.349000000     1.113000000
C     2.283000000     0.630000000     0.686000000
H     3.281000000     0.560000000     1.111000000
C     2.008000000     1.948000000     0.267000000
C     3.019000000     3.102000000     0.513000000
O     4.149000000     3.039000000     0.993000000
O     2.578000000     4.162000000     0.198000000
O     1.273000000     9.101000000     0.807000000
H     1.780000000     8.302000000     0.947000000
H     0.863000000     9.276000000     1.654000000
O     8.503000000     0.435000000    -1.712000000
H     7.680000000     0.117000000    -1.340000000
H     8.944000000     0.870000000    -0.983000000
O     4.943000000     5.016000000    -5.753000000
H     4.658000000     5.103000000    -6.663000000
H     4.158000000     4.735000000    -5.282000000
O     7.376000000     4.842000000     3.733000000
H     6.515000000     4.426000000     3.700000000
H     7.371000000     5.460000000     3.002000000
O     6.782000000    -0.584000000     1.330000000
H     6.274000000    -0.494000000     2.136000000
H     7.685000000    -0.696000000     1.628000000
O     8.040000000     6.470000000     1.260000000
H     7.230000000     6.967000000     1.369000000
H     8.246000000     6.548000000     0.329000000
O     7.482000000     2.987000000    -2.970000000
H     6.859000000     2.512000000    -2.420000000
H     7.801000000     3.697000000    -2.413000000
O     2.582000000     6.493000000     1.385000000
H     2.309000000     5.651000000     1.021000000
H     3.515000000     6.383000000     1.571000000
O     5.384000000     5.327000000     1.360000000
H     4.807000000     4.588000000     1.550000000
H     5.837000000     5.076000000     0.555000000
O     5.895000000     3.776000000     6.074000000
H     5.494000000     3.199000000     5.424000000
H     6.435000000     3.194000000     6.609000000
O     6.063000000     1.695000000    -0.353000000
H     6.016000000     0.894000000     0.169000000
H     5.405000000     2.272000000     0.036000000
O     4.010000000     6.141000000    -1.656000000
H     3.614000000     6.900000000    -2.085000000
H     3.266000000     5.620000000    -1.356000000
O     2.523000000     8.236000000    -2.735000000
H     2.830000000     9.067000000    -2.371000000
H     1.628000000     8.416000000    -3.021000000
O     8.057000000     3.055000000     1.475000000
H     7.425000000     2.617000000     0.904000000
H     8.050000000     3.967000000     1.185000000
O     5.214000000     8.900000000     0.683000000
H     5.379000000     9.754000000     0.282000000
H     4.845000000     8.371000000    -0.023000000
O     6.622000000     5.599000000    -1.655000000
H     5.679000000     5.748000000    -1.723000000
H     7.001000000     6.478000000    -1.617000000
O     5.411000000     0.285000000     4.049000000
H     5.024000000     1.151000000     4.177000000
H     5.763000000     0.051000000     4.908000000
O     4.355000000     3.030000000     3.802000000
H     4.348000000     2.993000000     2.845000000
H     3.443000000     3.196000000     4.041000000
O     5.869000000     7.836000000     3.282000000
H     5.171000000     8.189000000     3.834000000
H     5.637000000     8.114000000     2.396000000
