218
-1472.19884
C     1.585000000    -4.278000000     2.953000000
H     1.338000000    -5.017000000     2.195000000
C     0.653000000    -3.332000000     3.450000000
C     1.119000000    -2.351000000     4.274000000
H     0.452000000    -1.576000000     4.643000000
C    -0.756000000    -3.224000000     2.850000000
O    -1.156000000    -4.468000000     2.322000000
H    -0.812000000    -2.485000000     2.037000000
O    -1.685000000    -2.710000000     3.778000000
C    -2.645000000    -1.814000000     3.334000000
C    -2.310000000    -0.446000000     3.686000000
H    -1.501000000    -0.192000000     4.365000000
C    -3.063000000     0.565000000     3.194000000
O    -2.689000000     1.792000000     3.589000000
C    -4.181000000     0.301000000     2.387000000
C    -4.934000000     1.470000000     1.853000000
H    -5.992000000     1.270000000     1.674000000
C    -4.366000000     1.968000000     0.569000000
C    -4.710000000     1.422000000    -0.673000000
H    -5.282000000     0.498000000    -0.708000000
H    -4.974000000     2.218000000     2.648000000
C    -4.319000000    -1.051000000     1.891000000
H    -5.100000000    -1.313000000     1.182000000
C    -3.586000000    -2.137000000     2.387000000
C    -3.883000000    -3.517000000     1.902000000
H    -4.918000000    -3.592000000     1.563000000
H    -3.745000000    -4.256000000     2.695000000
C    -2.906000000    -3.909000000     0.783000000
C    -3.301000000    -3.607000000    -0.523000000
H    -4.278000000    -3.136000000    -0.609000000
C    -1.657000000    -4.442000000     1.023000000
C    -0.839000000    -4.747000000    -0.015000000
H     0.176000000    -5.019000000     0.265000000
C    -1.210000000    -4.528000000    -1.376000000
O    -0.254000000    -4.503000000    -2.334000000
C     0.258000000    -3.218000000    -2.609000000
C     1.796000000    -3.237000000    -2.757000000
C     2.467000000    -2.221000000    -3.386000000
H     1.916000000    -1.328000000    -3.670000000
C     2.610000000    -4.303000000    -2.325000000
H     2.158000000    -5.219000000    -1.955000000
O    -0.297000000    -2.610000000    -3.860000000
H     0.112000000    -2.500000000    -1.789000000
C    -2.521000000    -4.002000000    -1.656000000
C    -2.983000000    -3.625000000    -3.071000000
H    -4.065000000    -3.715000000    -3.192000000
H    -2.539000000    -4.319000000    -3.787000000
C    -2.662000000    -2.123000000    -3.395000000
C    -3.619000000    -1.114000000    -3.244000000
H    -4.628000000    -1.284000000    -2.878000000
C    -1.354000000    -1.768000000    -3.827000000
C    -1.118000000    -0.430000000    -4.212000000
H    -0.121000000    -0.132000000    -4.527000000
C    -2.075000000     0.543000000    -4.014000000
O    -1.768000000     1.833000000    -4.248000000
C    -1.419000000     2.687000000    -3.122000000
C    -0.245000000     3.594000000    -3.457000000
C     0.871000000     3.039000000    -4.106000000
H     0.848000000     2.006000000    -4.444000000
C    -0.139000000     4.951000000    -3.035000000
H    -1.048000000     5.323000000    -2.570000000
O    -2.591000000     3.458000000    -2.760000000
H    -1.079000000     2.068000000    -2.278000000
C    -3.325000000     0.181000000    -3.526000000
C    -4.340000000     1.293000000    -3.156000000
H    -5.337000000     0.849000000    -3.177000000
H    -4.320000000     2.038000000    -3.955000000
C    -4.110000000     1.933000000    -1.782000000
C    -3.283000000     2.997000000    -1.627000000
C    -2.896000000     3.475000000    -0.418000000
H    -2.234000000     4.326000000    -0.279000000
C    -3.518000000     3.049000000     0.703000000
O    -3.044000000     3.509000000     1.906000000
C    -2.118000000     2.705000000     2.636000000
H    -1.709000000     2.029000000     1.870000000
C    -0.959000000     3.504000000     3.140000000
C    -0.262000000     3.183000000     4.300000000
H    -0.777000000     2.420000000     4.878000000
C    -0.411000000     4.557000000     2.364000000
H    -0.907000000     4.874000000     1.450000000
C     0.808000000     5.111000000     2.772000000
O     1.466000000     6.019000000     1.937000000
C     1.461000000     4.701000000     3.902000000
H     2.398000000     5.211000000     4.112000000
C     0.980000000     3.677000000     4.668000000
O     1.621000000     3.245000000     5.906000000
C     1.496000000     1.958000000     6.344000000
C     2.231000000     0.975000000     5.724000000
H     2.837000000     1.336000000     4.897000000
C     0.548000000     1.599000000     7.338000000
H    -0.192000000     2.278000000     7.754000000
C     0.465000000     0.266000000     7.711000000
H    -0.285000000    -0.049000000     8.432000000
C     1.294000000    -0.695000000     7.118000000
H     1.128000000    -1.731000000     7.402000000
C     2.103000000    -0.316000000     6.074000000
O     2.963000000    -1.198000000     5.440000000
C     2.508000000    -2.269000000     4.706000000
C     3.431000000    -3.149000000     4.197000000
H     4.482000000    -3.126000000     4.472000000
C     2.939000000    -4.144000000     3.330000000
O     3.899000000    -4.985000000     2.811000000
C     3.789000000    -5.745000000     1.682000000
C     4.078000000    -5.146000000     0.462000000
H     4.445000000    -4.123000000     0.435000000
C     3.559000000    -7.111000000     1.695000000
H     3.289000000    -7.598000000     2.628000000
C     3.616000000    -7.852000000     0.522000000
H     3.544000000    -8.936000000     0.569000000
C     3.893000000    -7.252000000    -0.700000000
H     3.947000000    -7.821000000    -1.625000000
C     4.204000000    -5.934000000    -0.692000000
O     4.611000000    -5.434000000    -1.950000000
C     3.974000000    -4.344000000    -2.421000000
C     4.592000000    -3.203000000    -2.912000000
H     5.648000000    -2.981000000    -2.781000000
C     3.827000000    -2.192000000    -3.477000000
O     4.538000000    -1.091000000    -3.899000000
C     3.987000000    -0.181000000    -4.824000000
C     3.958000000     1.200000000    -4.519000000
H     4.557000000     1.600000000    -3.705000000
C     3.378000000    -0.693000000    -5.954000000
H     3.489000000    -1.755000000    -6.157000000
C     2.740000000     0.177000000    -6.790000000
H     2.303000000    -0.173000000    -7.721000000
C     2.594000000     1.576000000    -6.516000000
H     2.061000000     2.289000000    -7.140000000
C     3.239000000     2.019000000    -5.379000000
O     3.110000000     3.337000000    -5.061000000
C     2.031000000     3.797000000    -4.380000000
C     2.061000000     5.107000000    -3.982000000
H     2.925000000     5.709000000    -4.253000000
C     1.014000000     5.625000000    -3.208000000
O     1.162000000     6.940000000    -2.728000000
C     0.867000000     7.287000000    -1.423000000
C    -0.130000000     8.264000000    -1.183000000
H    -0.613000000     8.698000000    -2.055000000
C    -0.632000000     8.396000000     0.089000000
H    -1.476000000     8.989000000     0.435000000
C    -0.170000000     7.659000000     1.202000000
H    -0.514000000     7.870000000     2.211000000
C     0.927000000     6.786000000     0.945000000
C     1.355000000     6.512000000    -0.382000000
H     2.205000000     5.861000000    -0.573000000
C     2.240000000     0.369000000     1.177000000
H     2.880000000     0.332000000     2.055000000
C     0.914000000    -0.027000000     1.247000000
H     0.391000000    -0.344000000     2.146000000
C     0.184000000    -0.012000000     0.090000000
C    -1.330000000    -0.320000000     0.013000000
H    -1.424000000    -0.691000000     1.036000000
H    -1.877000000     0.572000000    -0.299000000
H    -1.457000000    -1.217000000    -0.596000000
C     0.776000000     0.389000000    -1.096000000
H     0.108000000     0.527000000    -1.943000000
C     2.060000000     0.809000000    -1.166000000
H     2.532000000     1.173000000    -2.075000000
C     2.837000000     0.755000000    -0.017000000
C     4.270000000     1.194000000     0.048000000
O     4.899000000     1.364000000    -0.971000000
O     4.821000000     1.373000000     1.107000000
O     7.940000000    -0.703000000    -4.531000000
H     7.965000000    -1.655000000    -4.636000000
H     7.827000000    -0.569000000    -3.590000000
O     6.657000000    -0.379000000    -2.154000000
H     6.285000000     0.321000000    -1.617000000
H     5.898000000    -0.885000000    -2.445000000
O     6.389000000     3.581000000    -1.437000000
H     6.068000000     2.680000000    -1.396000000
H     6.095000000     3.901000000    -2.290000000
O     4.965000000     5.716000000    -0.365000000
H     4.526000000     5.308000000     0.381000000
H     5.646000000     5.091000000    -0.614000000
O     9.690000000     0.596000000     0.930000000
H    10.396000000     0.738000000     0.300000000
H     9.095000000     1.333000000     0.794000000
O     6.106000000     4.803000000    -4.136000000
H     6.033000000     4.120000000    -4.803000000
H     5.788000000     5.595000000    -4.568000000
O     5.642000000     6.930000000     2.948000000
H     6.405000000     7.346000000     2.548000000
H     5.030000000     6.804000000     2.223000000
O     7.249000000    -1.229000000     4.097000000
H     7.707000000    -1.328000000     3.262000000
H     7.946000000    -1.075000000     4.735000000
O     6.684000000     2.439000000    -5.489000000
H     7.373000000     2.252000000    -4.852000000
H     6.117000000     1.668000000    -5.463000000
O     4.101000000     4.028000000     1.563000000
H     4.400000000     3.119000000     1.547000000
H     3.156000000     3.972000000     1.421000000
O     8.380000000     2.291000000    -3.195000000
H     8.206000000     3.021000000    -2.601000000
H     8.396000000     1.520000000    -2.628000000
O     6.294000000    -0.827000000     0.995000000
H     5.683000000    -0.152000000     1.291000000
H     6.321000000    -0.725000000     0.044000000
O     9.161000000     4.254000000     1.697000000
H     8.631000000     3.572000000     1.284000000
H     9.395000000     4.843000000     0.980000000
O     5.627000000     1.109000000     3.685000000
H     5.950000000     0.236000000     3.907000000
H     5.086000000     0.973000000     2.907000000
O     4.930000000     2.656000000     5.995000000
H     5.131000000     1.885000000     5.465000000
H     5.191000000     3.397000000     5.447000000
O     5.949000000     4.705000000     4.507000000
H     6.128000000     3.940000000     3.960000000
H     6.257000000     5.448000000     3.988000000
O     9.175000000     1.276000000     3.672000000
H     9.476000000     1.026000000     2.798000000
H     8.299000000     0.897000000     3.742000000
O     7.476000000     2.477000000     0.693000000
H     6.729000000     2.084000000     1.143000000
H     7.103000000     2.856000000    -0.103000000
O     8.973000000    -1.734000000     1.866000000
H     8.105000000    -1.723000000     1.463000000
H     9.378000000    -0.913000000     1.584000000
