218
-1484.68258
C     2.805000000    -3.850000000     2.221000000
H     2.743000000    -4.439000000     1.310000000
C     1.651000000    -3.590000000     2.996000000
C     1.861000000    -2.925000000     4.245000000
H     0.918000000    -2.625000000     4.694000000
C     0.262000000    -3.662000000     2.323000000
O     0.313000000    -4.683000000     1.268000000
H     0.021000000    -2.737000000     1.778000000
O    -0.782000000    -3.964000000     3.209000000
C    -1.972000000    -3.286000000     3.076000000
C    -2.121000000    -2.072000000     3.793000000
H    -1.400000000    -1.711000000     4.522000000
C    -3.184000000    -1.210000000     3.519000000
O    -3.173000000     0.070000000     4.067000000
C    -4.096000000    -1.533000000     2.494000000
C    -5.135000000    -0.550000000     2.043000000
H    -5.951000000    -1.090000000     1.558000000
C    -4.695000000     0.500000000     0.945000000
C    -5.014000000     0.191000000    -0.372000000
H    -5.501000000    -0.737000000    -0.659000000
H    -5.626000000    -0.084000000     2.900000000
C    -3.977000000    -2.755000000     1.800000000
H    -4.681000000    -2.870000000     0.980000000
C    -2.859000000    -3.586000000     2.004000000
C    -2.736000000    -4.882000000     1.161000000
H    -3.772000000    -5.166000000     0.966000000
H    -2.382000000    -5.675000000     1.823000000
C    -1.797000000    -4.644000000    -0.058000000
C    -2.362000000    -4.251000000    -1.276000000
H    -3.433000000    -4.086000000    -1.367000000
C    -0.366000000    -4.582000000     0.078000000
C     0.400000000    -4.241000000    -1.081000000
H     1.486000000    -4.220000000    -1.041000000
C    -0.146000000    -3.973000000    -2.377000000
O     0.726000000    -3.569000000    -3.363000000
C     0.741000000    -2.133000000    -3.666000000
C     2.184000000    -1.613000000    -3.859000000
C     2.497000000    -0.559000000    -4.748000000
H     1.710000000    -0.128000000    -5.363000000
C     3.188000000    -2.069000000    -2.954000000
H     2.888000000    -2.873000000    -2.287000000
O    -0.047000000    -1.839000000    -4.775000000
H     0.256000000    -1.586000000    -2.845000000
C    -1.556000000    -3.950000000    -2.422000000
C    -2.145000000    -3.648000000    -3.820000000
H    -3.119000000    -4.140000000    -3.864000000
H    -1.509000000    -4.126000000    -4.568000000
C    -2.277000000    -2.154000000    -4.006000000
C    -3.499000000    -1.535000000    -3.595000000
H    -4.296000000    -2.138000000    -3.168000000
C    -1.225000000    -1.296000000    -4.413000000
C    -1.422000000     0.083000000    -4.522000000
H    -0.685000000     0.766000000    -4.938000000
C    -2.600000000     0.648000000    -4.072000000
O    -2.611000000     2.021000000    -4.017000000
C    -2.238000000     2.571000000    -2.731000000
C    -1.234000000     3.736000000    -2.819000000
C    -0.424000000     3.837000000    -3.937000000
H    -0.533000000     3.153000000    -4.775000000
C    -1.075000000     4.631000000    -1.740000000
H    -1.523000000     4.547000000    -0.753000000
O    -3.357000000     3.035000000    -2.110000000
H    -1.756000000     1.826000000    -2.081000000
C    -3.591000000    -0.133000000    -3.541000000
C    -4.796000000     0.565000000    -2.918000000
H    -5.650000000    -0.116000000    -2.958000000
H    -5.106000000     1.481000000    -3.425000000
C    -4.540000000     0.965000000    -1.444000000
C    -3.884000000     2.205000000    -1.124000000
C    -3.632000000     2.544000000     0.289000000
H    -3.149000000     3.495000000     0.498000000
C    -3.869000000     1.609000000     1.277000000
O    -3.617000000     1.898000000     2.610000000
C    -2.590000000     1.126000000     3.240000000
H    -1.939000000     0.721000000     2.452000000
C    -1.689000000     2.020000000     4.125000000
C    -1.170000000     1.573000000     5.335000000
H    -1.422000000     0.615000000     5.782000000
C    -1.194000000     3.189000000     3.556000000
H    -1.572000000     3.548000000     2.602000000
C    -0.188000000     3.905000000     4.192000000
O     0.349000000     4.973000000     3.490000000
C     0.362000000     3.460000000     5.394000000
H     1.213000000     3.902000000     5.906000000
C    -0.220000000     2.321000000     5.958000000
O     0.264000000     1.869000000     7.178000000
C     0.869000000     0.690000000     7.396000000
C     1.697000000     0.072000000     6.436000000
H     2.029000000     0.708000000     5.619000000
C     0.531000000    -0.056000000     8.496000000
H    -0.188000000     0.375000000     9.188000000
C     1.029000000    -1.348000000     8.671000000
H     0.578000000    -1.976000000     9.435000000
C     1.858000000    -1.935000000     7.737000000
H     2.151000000    -2.973000000     7.874000000
C     2.195000000    -1.243000000     6.643000000
O     3.234000000    -1.672000000     5.793000000
C     3.108000000    -2.492000000     4.753000000
C     4.234000000    -2.952000000     4.033000000
H     5.246000000    -2.642000000     4.283000000
C     4.075000000    -3.622000000     2.813000000
O     5.188000000    -4.117000000     2.117000000
C     5.368000000    -4.111000000     0.780000000
C     5.138000000    -2.956000000    -0.007000000
H     4.683000000    -2.063000000     0.413000000
C     5.831000000    -5.290000000     0.210000000
H     5.922000000    -6.147000000     0.873000000
C     6.097000000    -5.341000000    -1.143000000
H     6.500000000    -6.258000000    -1.565000000
C     6.013000000    -4.182000000    -1.890000000
H     6.402000000    -4.143000000    -2.905000000
C     5.533000000    -2.991000000    -1.340000000
O     5.453000000    -1.793000000    -2.032000000
C     4.426000000    -1.447000000    -2.882000000
C     4.662000000    -0.350000000    -3.779000000
H     5.626000000     0.151000000    -3.741000000
C     3.738000000     0.045000000    -4.681000000
O     4.121000000     0.932000000    -5.672000000
C     3.262000000     1.828000000    -6.279000000
C     2.572000000     2.719000000    -5.466000000
H     2.687000000     2.644000000    -4.388000000
C     3.248000000     2.127000000    -7.718000000
H     3.739000000     1.386000000    -8.344000000
C     2.459000000     3.224000000    -8.174000000
H     2.377000000     3.521000000    -9.216000000
C     1.685000000     4.000000000    -7.307000000
H     1.177000000     4.875000000    -7.705000000
C     1.838000000     3.779000000    -5.924000000
O     1.529000000     4.773000000    -5.052000000
C     0.554000000     4.791000000    -4.064000000
C     0.746000000     5.684000000    -3.023000000
H     1.472000000     6.478000000    -3.178000000
C    -0.082000000     5.679000000    -1.887000000
O     0.189000000     6.632000000    -0.872000000
C    -0.415000000     6.634000000     0.339000000
C    -1.568000000     7.333000000     0.655000000
H    -2.006000000     7.982000000    -0.099000000
C    -2.086000000     7.250000000     1.944000000
H    -2.945000000     7.831000000     2.271000000
C    -1.487000000     6.437000000     2.938000000
H    -1.880000000     6.423000000     3.952000000
C    -0.310000000     5.762000000     2.590000000
C     0.186000000     5.822000000     1.294000000
H     1.037000000     5.218000000     0.990000000
C     2.503000000     0.502000000     0.673000000
H     3.132000000     0.407000000     1.554000000
C     1.181000000     0.118000000     0.695000000
H     0.798000000    -0.210000000     1.659000000
C     0.407000000     0.194000000    -0.510000000
C    -1.049000000    -0.420000000    -0.558000000
H    -1.008000000    -1.494000000    -0.367000000
H    -1.666000000     0.081000000     0.191000000
H    -1.517000000    -0.277000000    -1.535000000
C     0.998000000     0.665000000    -1.648000000
H     0.381000000     0.655000000    -2.542000000
C     2.311000000     1.104000000    -1.655000000
H     2.707000000     1.568000000    -2.555000000
C     3.107000000     1.048000000    -0.483000000
C     4.547000000     1.402000000    -0.475000000
O     5.090000000     1.913000000    -1.430000000
O     5.147000000     1.318000000     0.605000000
O     5.942000000     6.671000000     1.047000000
H     6.842000000     6.382000000     0.895000000
H     5.545000000     6.685000000     0.177000000
O     7.448000000     4.062000000     2.947000000
H     7.375000000     3.315000000     3.541000000
H     6.999000000     3.779000000     2.150000000
O     8.675000000    -0.409000000     1.308000000
H     8.036000000     0.015000000     1.880000000
H     8.802000000    -1.277000000     1.693000000
O     7.690000000     0.827000000    -1.246000000
H     6.759000000     0.959000000    -1.428000000
H     7.708000000     0.387000000    -0.397000000
O     8.708000000     5.668000000     1.236000000
H     8.310000000     5.375000000     2.056000000
H     8.929000000     4.859000000     0.775000000
O     8.311000000     3.965000000    -2.049000000
H     7.850000000     3.517000000    -1.340000000
H     8.458000000     4.851000000    -1.716000000
O     8.523000000    -1.651000000    -2.781000000
H     7.859000000    -2.082000000    -3.318000000
H     8.188000000    -0.764000000    -2.652000000
O     4.432000000     5.299000000    -5.440000000
H     5.008000000     4.743000000    -4.915000000
H     3.574000000     5.215000000    -5.024000000
O     2.724000000     4.490000000    -1.085000000
H     3.498000000     4.438000000    -0.524000000
H     2.380000000     3.597000000    -1.102000000
O     7.889000000    -0.060000000    -5.830000000
H     7.800000000    -0.890000000    -5.361000000
H     7.930000000     0.601000000    -5.139000000
O     9.633000000     2.302000000     0.419000000
H     9.570000000     1.468000000     0.885000000
H     9.126000000     2.168000000    -0.382000000
O     3.994000000     4.312000000     1.614000000
H     3.865000000     5.082000000     2.168000000
H     4.183000000     3.603000000     2.229000000
O     5.545000000     4.244000000    -3.102000000
H     5.148000000     3.479000000    -2.687000000
H     6.465000000     4.005000000    -3.215000000
O     6.595000000     3.554000000     0.440000000
H     6.420000000     2.618000000     0.344000000
H     5.728000000     3.953000000     0.512000000
O     6.290000000     0.355000000     2.681000000
H     5.812000000    -0.451000000     2.877000000
H     5.839000000     0.722000000     1.921000000
O     7.408000000     1.871000000     4.951000000
H     7.010000000     1.455000000     4.187000000
H     6.816000000     1.661000000     5.674000000
O     3.122000000     7.374000000    -1.103000000
H     4.066000000     7.281000000    -1.229000000
H     2.776000000     6.489000000    -1.218000000
O     8.098000000     1.969000000    -4.153000000
H     8.221000000     2.606000000    -3.449000000
H     7.418000000     2.352000000    -4.707000000
O     5.578000000     6.531000000    -1.559000000
H     5.448000000     5.819000000    -2.186000000
H     6.522000000     6.688000000    -1.567000000
