218
-1459.61631
C     2.553000000    -4.067000000     2.457000000
H     2.374000000    -4.677000000     1.576000000
C     1.516000000    -3.432000000     3.165000000
C     1.798000000    -2.562000000     4.197000000
H     0.974000000    -2.067000000     4.704000000
C     0.050000000    -3.458000000     2.716000000
O    -0.214000000    -4.638000000     1.952000000
H    -0.051000000    -2.602000000     2.033000000
O    -0.880000000    -3.391000000     3.816000000
C    -2.027000000    -2.571000000     3.620000000
C    -1.965000000    -1.265000000     4.104000000
H    -1.189000000    -0.876000000     4.757000000
C    -2.931000000    -0.368000000     3.719000000
O    -2.824000000     0.888000000     4.268000000
C    -3.911000000    -0.760000000     2.837000000
C    -5.106000000     0.201000000     2.451000000
H    -5.972000000    -0.421000000     2.213000000
C    -4.722000000     0.980000000     1.187000000
C    -5.017000000     0.514000000    -0.110000000
H    -5.701000000    -0.313000000    -0.284000000
H    -5.443000000     0.759000000     3.327000000
C    -3.957000000    -2.059000000     2.361000000
H    -4.735000000    -2.315000000     1.646000000
C    -2.997000000    -2.950000000     2.709000000
C    -3.023000000    -4.302000000     1.960000000
H    -4.071000000    -4.531000000     1.757000000
H    -2.592000000    -5.014000000     2.666000000
C    -2.207000000    -4.287000000     0.663000000
C    -2.850000000    -4.045000000    -0.528000000
H    -3.936000000    -4.004000000    -0.521000000
C    -0.821000000    -4.502000000     0.724000000
C    -0.054000000    -4.304000000    -0.448000000
H     1.023000000    -4.402000000    -0.346000000
C    -0.742000000    -4.108000000    -1.685000000
O     0.106000000    -3.915000000    -2.788000000
C     0.374000000    -2.637000000    -3.270000000
C     1.879000000    -2.270000000    -3.489000000
C     2.311000000    -1.433000000    -4.516000000
H     1.571000000    -1.024000000    -5.200000000
C     2.887000000    -2.799000000    -2.674000000
H     2.752000000    -3.489000000    -1.846000000
O    -0.501000000    -2.369000000    -4.394000000
H    -0.041000000    -1.951000000    -2.517000000
C    -2.101000000    -4.009000000    -1.701000000
C    -2.837000000    -3.855000000    -3.003000000
H    -3.888000000    -4.149000000    -2.997000000
H    -2.389000000    -4.379000000    -3.850000000
C    -2.742000000    -2.366000000    -3.414000000
C    -3.770000000    -1.525000000    -3.093000000
H    -4.638000000    -1.934000000    -2.582000000
C    -1.616000000    -1.731000000    -4.057000000
C    -1.605000000    -0.301000000    -4.269000000
H    -0.770000000     0.208000000    -4.746000000
C    -2.729000000     0.443000000    -3.945000000
O    -2.599000000     1.804000000    -3.975000000
C    -2.120000000     2.416000000    -2.770000000
C    -0.938000000     3.353000000    -3.069000000
C    -0.131000000     3.135000000    -4.225000000
H    -0.431000000     2.483000000    -5.042000000
C    -0.398000000     4.172000000    -2.062000000
H    -0.875000000     4.274000000    -1.091000000
O    -3.185000000     3.012000000    -2.052000000
H    -1.705000000     1.617000000    -2.138000000
C    -3.844000000    -0.153000000    -3.324000000
C    -4.933000000     0.685000000    -2.584000000
H    -5.791000000     0.011000000    -2.538000000
H    -5.310000000     1.477000000    -3.236000000
C    -4.541000000     1.177000000    -1.220000000
C    -3.786000000     2.289000000    -1.036000000
C    -3.532000000     2.789000000     0.266000000
H    -2.798000000     3.570000000     0.446000000
C    -3.927000000     2.084000000     1.361000000
O    -3.554000000     2.520000000     2.625000000
C    -2.413000000     1.843000000     3.228000000
H    -1.812000000     1.392000000     2.424000000
C    -1.429000000     2.921000000     3.807000000
C    -0.427000000     2.459000000     4.674000000
H    -0.418000000     1.401000000     4.920000000
C    -1.362000000     4.289000000     3.358000000
H    -2.202000000     4.703000000     2.806000000
C    -0.250000000     5.129000000     3.719000000
O    -0.245000000     6.455000000     3.222000000
C     0.716000000     4.596000000     4.580000000
H     1.576000000     5.183000000     4.891000000
C     0.619000000     3.266000000     5.031000000
O     1.702000000     2.827000000     5.758000000
C     1.787000000     1.533000000     6.289000000
C     2.571000000     0.556000000     5.721000000
H     3.138000000     0.768000000     4.819000000
C     1.126000000     1.296000000     7.481000000
H     0.621000000     2.156000000     7.913000000
C     1.087000000     0.019000000     8.071000000
H     0.540000000    -0.140000000     8.997000000
C     1.887000000    -0.980000000     7.542000000
H     1.897000000    -1.911000000     8.102000000
C     2.591000000    -0.748000000     6.332000000
O     3.414000000    -1.716000000     5.810000000
C     3.070000000    -2.541000000     4.760000000
C     4.090000000    -3.234000000     4.118000000
H     5.140000000    -3.072000000     4.351000000
C     3.841000000    -3.919000000     2.973000000
O     4.999000000    -4.394000000     2.445000000
C     5.062000000    -4.716000000     1.101000000
C     5.253000000    -3.673000000     0.195000000
H     5.226000000    -2.646000000     0.552000000
C     4.884000000    -6.041000000     0.655000000
H     4.660000000    -6.850000000     1.345000000
C     4.856000000    -6.299000000    -0.710000000
H     4.766000000    -7.306000000    -1.111000000
C     5.050000000    -5.219000000    -1.581000000
H     5.015000000    -5.414000000    -2.650000000
C     5.171000000    -3.905000000    -1.163000000
O     5.308000000    -2.934000000    -2.039000000
C     4.243000000    -2.503000000    -2.894000000
C     4.596000000    -1.558000000    -3.817000000
H     5.635000000    -1.295000000    -3.997000000
C     3.650000000    -1.047000000    -4.706000000
O     4.050000000    -0.290000000    -5.782000000
C     3.214000000     0.756000000    -6.249000000
C     2.804000000     1.888000000    -5.583000000
H     3.294000000     1.963000000    -4.616000000
C     2.931000000     0.669000000    -7.608000000
H     3.226000000    -0.208000000    -8.179000000
C     2.043000000     1.511000000    -8.264000000
H     1.837000000     1.416000000    -9.327000000
C     1.573000000     2.616000000    -7.508000000
H     1.043000000     3.404000000    -8.038000000
C     1.927000000     2.764000000    -6.179000000
O     1.682000000     3.992000000    -5.518000000
C     0.935000000     4.058000000    -4.446000000
C     1.291000000     5.041000000    -3.494000000
H     2.172000000     5.641000000    -3.708000000
C     0.694000000     4.982000000    -2.254000000
O     1.289000000     5.655000000    -1.227000000
C     0.562000000     6.403000000    -0.306000000
C    -0.329000000     7.377000000    -0.748000000
H    -0.408000000     7.630000000    -1.802000000
C    -1.054000000     8.151000000     0.111000000
H    -1.628000000     9.021000000    -0.198000000
C    -0.900000000     7.886000000     1.455000000
H    -1.434000000     8.483000000     2.189000000
C    -0.129000000     6.808000000     1.935000000
C     0.662000000     6.083000000     1.032000000
H     1.266000000     5.245000000     1.369000000
C     1.454000000     1.549000000     1.195000000
H     1.598000000     2.502000000     1.697000000
C     0.213000000     1.131000000     0.759000000
H    -0.705000000     1.713000000     0.789000000
C     0.120000000    -0.116000000     0.255000000
C    -1.116000000    -0.767000000    -0.273000000
H    -1.190000000    -0.718000000    -1.361000000
H    -1.212000000    -1.816000000     0.014000000
H    -2.002000000    -0.248000000     0.097000000
C     1.179000000    -0.942000000     0.013000000
H     1.079000000    -1.906000000    -0.478000000
C     2.391000000    -0.396000000     0.412000000
H     3.285000000    -0.930000000     0.100000000
C     2.564000000     0.782000000     1.093000000
C     3.935000000     1.300000000     1.491000000
O     4.947000000     0.806000000     1.037000000
O     3.972000000     2.311000000     2.157000000
O     7.348000000     5.390000000    -1.796000000
H     7.171000000     6.286000000    -1.510000000
H     6.993000000     4.841000000    -1.097000000
O     4.259000000     5.369000000    -0.713000000
H     4.317000000     4.538000000    -1.184000000
H     3.720000000     5.926000000    -1.274000000
O     4.243000000     4.665000000     3.011000000
H     3.580000000     4.438000000     3.663000000
H     4.272000000     3.909000000     2.425000000
O     6.088000000    -0.481000000     3.110000000
H     6.153000000     0.180000000     3.799000000
H     5.667000000    -0.025000000     2.380000000
O     8.494000000     2.159000000     4.462000000
H     8.663000000     1.874000000     5.360000000
H     7.557000000     2.354000000     4.444000000
O     5.752000000     2.103000000     4.207000000
H     5.207000000     2.270000000     3.439000000
H     5.397000000     2.679000000     4.883000000
O     9.840000000     4.091000000     3.012000000
H     9.404000000     3.315000000     3.362000000
H     9.573000000     4.122000000     2.093000000
O     6.941000000     1.661000000    -3.352000000
H     6.116000000     1.622000000    -2.869000000
H     6.908000000     2.497000000    -3.816000000
O     4.543000000     7.032000000     1.533000000
H     4.518000000     6.427000000     2.274000000
H     4.503000000     6.468000000     0.761000000
O     4.535000000     3.852000000     6.006000000
H     5.089000000     4.296000000     6.648000000
H     3.646000000     4.137000000     6.218000000
O     9.779000000     1.007000000     1.175000000
H     9.645000000     0.474000000     1.959000000
H     8.909000000     1.082000000     0.785000000
O     6.912000000     5.450000000     3.754000000
H     7.295000000     4.641000000     3.415000000
H     5.975000000     5.263000000     3.818000000
O     4.638000000     2.316000000    -1.496000000
H     4.664000000     2.120000000    -0.560000000
H     3.729000000     2.570000000    -1.662000000
O     6.771000000     3.744000000     0.627000000
H     6.925000000     2.817000000     0.446000000
H     5.818000000     3.831000000     0.636000000
O     7.349000000     1.055000000     0.241000000
H     6.528000000     1.057000000     0.734000000
H     7.196000000     0.439000000    -0.475000000
O     9.720000000    -0.304000000     3.541000000
H     9.329000000     0.475000000     3.935000000
H    10.515000000    -0.457000000     4.052000000
O     8.090000000    -2.136000000     2.209000000
H     7.270000000    -1.641000000     2.216000000
H     8.667000000    -1.652000000     2.800000000
O     7.882000000    -1.996000000    -0.525000000
H     8.279000000    -1.954000000     0.345000000
H     7.704000000    -2.927000000    -0.662000000
O     6.279000000    -0.393000000     7.324000000
H     5.966000000    -1.189000000     6.895000000
H     5.553000000    -0.124000000     7.888000000
