218
-1454.01492
C     2.676000000    -4.331000000     1.652000000
H     2.635000000    -4.953000000     0.762000000
C     1.598000000    -3.784000000     2.247000000
C     1.724000000    -2.983000000     3.419000000
H     0.814000000    -2.597000000     3.870000000
C     0.189000000    -3.855000000     1.618000000
O     0.184000000    -4.905000000     0.586000000
H    -0.148000000    -2.857000000     1.300000000
O    -0.767000000    -4.248000000     2.625000000
C    -1.945000000    -3.471000000     2.483000000
C    -2.183000000    -2.386000000     3.352000000
H    -1.562000000    -2.231000000     4.231000000
C    -3.286000000    -1.550000000     3.122000000
O    -3.235000000    -0.379000000     3.849000000
C    -4.108000000    -1.665000000     2.034000000
C    -5.220000000    -0.684000000     1.755000000
H    -5.909000000    -1.372000000     1.261000000
C    -4.747000000     0.425000000     0.875000000
C    -4.943000000     0.352000000    -0.522000000
H    -5.300000000    -0.544000000    -1.024000000
H    -5.664000000    -0.344000000     2.693000000
C    -3.904000000    -2.734000000     1.158000000
H    -4.584000000    -2.988000000     0.349000000
C    -2.831000000    -3.619000000     1.378000000
C    -2.652000000    -4.844000000     0.435000000
H    -3.644000000    -5.168000000     0.112000000
H    -2.379000000    -5.704000000     1.050000000
C    -1.796000000    -4.484000000    -0.781000000
C    -2.263000000    -4.090000000    -2.028000000
H    -3.348000000    -4.073000000    -2.084000000
C    -0.423000000    -4.603000000    -0.614000000
C     0.439000000    -4.316000000    -1.609000000
H     1.500000000    -4.527000000    -1.497000000
C    -0.023000000    -3.870000000    -2.781000000
O     0.886000000    -3.352000000    -3.687000000
C     0.951000000    -1.867000000    -3.802000000
C     2.429000000    -1.436000000    -3.855000000
C     2.733000000    -0.134000000    -4.321000000
H     1.936000000     0.515000000    -4.676000000
C     3.479000000    -2.257000000    -3.504000000
H     3.271000000    -3.301000000    -3.286000000
O     0.155000000    -1.458000000    -4.940000000
H     0.705000000    -1.451000000    -2.814000000
C    -1.368000000    -3.761000000    -3.011000000
C    -1.955000000    -3.122000000    -4.179000000
H    -2.946000000    -3.506000000    -4.428000000
H    -1.350000000    -3.407000000    -5.042000000
C    -2.063000000    -1.646000000    -4.156000000
C    -3.185000000    -1.001000000    -3.537000000
H    -4.018000000    -1.602000000    -3.180000000
C    -0.978000000    -0.881000000    -4.617000000
C    -0.970000000     0.512000000    -4.474000000
H    -0.154000000     1.150000000    -4.804000000
C    -2.035000000     1.092000000    -3.747000000
O    -2.070000000     2.459000000    -3.546000000
C    -1.878000000     2.973000000    -2.180000000
C    -0.954000000     4.200000000    -2.106000000
C    -0.029000000     4.414000000    -3.150000000
H    -0.089000000     3.679000000    -3.948000000
C    -1.065000000     5.177000000    -1.050000000
H    -1.812000000     5.136000000    -0.261000000
O    -3.169000000     3.335000000    -1.575000000
H    -1.485000000     2.179000000    -1.529000000
C    -3.205000000     0.391000000    -3.375000000
C    -4.453000000     1.113000000    -2.793000000
H    -5.382000000     0.636000000    -3.113000000
H    -4.549000000     2.116000000    -3.214000000
C    -4.375000000     1.343000000    -1.329000000
C    -3.803000000     2.490000000    -0.822000000
C    -3.747000000     2.625000000     0.558000000
H    -3.325000000     3.514000000     1.019000000
C    -4.181000000     1.576000000     1.390000000
O    -3.855000000     1.632000000     2.713000000
C    -2.744000000     0.910000000     3.212000000
H    -2.125000000     0.778000000     2.313000000
C    -1.874000000     1.751000000     4.144000000
C    -1.316000000     1.151000000     5.272000000
H    -1.618000000     0.125000000     5.469000000
C    -1.540000000     3.039000000     3.821000000
H    -1.965000000     3.504000000     2.935000000
C    -0.708000000     3.787000000     4.714000000
O    -0.229000000     5.015000000     4.344000000
C    -0.084000000     3.180000000     5.850000000
H     0.690000000     3.672000000     6.434000000
C    -0.339000000     1.838000000     6.051000000
O     0.155000000     1.232000000     7.145000000
C     0.803000000     0.046000000     7.131000000
C     1.651000000    -0.229000000     6.011000000
H     1.809000000     0.544000000     5.263000000
C     0.581000000    -0.905000000     8.118000000
H     0.019000000    -0.572000000     8.987000000
C     1.220000000    -2.168000000     7.979000000
H     1.013000000    -2.907000000     8.748000000
C     2.005000000    -2.436000000     6.874000000
H     2.417000000    -3.427000000     6.704000000
C     2.272000000    -1.456000000     5.939000000
O     3.169000000    -1.692000000     4.879000000
C     2.971000000    -2.640000000     3.874000000
C     4.074000000    -3.182000000     3.299000000
H     5.055000000    -2.891000000     3.665000000
C     3.911000000    -4.002000000     2.154000000
O     4.999000000    -4.610000000     1.562000000
C     5.271000000    -4.670000000     0.197000000
C     5.396000000    -3.555000000    -0.671000000
H     5.317000000    -2.522000000    -0.344000000
C     5.386000000    -5.938000000    -0.335000000
H     5.356000000    -6.777000000     0.355000000
C     5.721000000    -6.139000000    -1.667000000
H     5.937000000    -7.102000000    -2.122000000
C     5.878000000    -4.999000000    -2.528000000
H     6.194000000    -5.067000000    -3.566000000
C     5.656000000    -3.701000000    -2.036000000
O     5.782000000    -2.658000000    -2.957000000
C     4.758000000    -1.798000000    -3.331000000
C     5.034000000    -0.475000000    -3.609000000
H     6.064000000    -0.130000000    -3.582000000
C     4.027000000     0.325000000    -4.150000000
O     4.359000000     1.595000000    -4.408000000
C     3.516000000     2.538000000    -4.952000000
C     3.166000000     3.697000000    -4.218000000
H     3.501000000     3.861000000    -3.197000000
C     2.944000000     2.349000000    -6.227000000
H     2.953000000     1.388000000    -6.735000000
C     2.090000000     3.282000000    -6.769000000
H     1.527000000     3.154000000    -7.690000000
C     1.771000000     4.463000000    -6.091000000
H     0.960000000     5.050000000    -6.515000000
C     2.274000000     4.640000000    -4.809000000
O     1.866000000     5.642000000    -4.032000000
C     0.825000000     5.509000000    -3.092000000
C     0.825000000     6.488000000    -2.037000000
H     1.504000000     7.336000000    -2.071000000
C    -0.155000000     6.248000000    -1.006000000
O    -0.012000000     7.201000000     0.018000000
C    -0.772000000     6.883000000     1.252000000
C    -2.018000000     7.473000000     1.535000000
H    -2.333000000     8.202000000     0.793000000
C    -2.760000000     7.020000000     2.561000000
H    -3.782000000     7.361000000     2.705000000
C    -2.163000000     6.193000000     3.543000000
H    -2.806000000     5.957000000     4.388000000
C    -0.861000000     5.813000000     3.430000000
C    -0.190000000     6.096000000     2.228000000
H     0.760000000     5.625000000     1.988000000
C     0.875000000     1.995000000     1.675000000
H     0.731000000     3.024000000     1.993000000
C    -0.149000000     1.422000000     0.910000000
H    -1.054000000     1.967000000     0.656000000
C    -0.049000000     0.111000000     0.446000000
C    -1.203000000    -0.615000000    -0.307000000
H    -1.215000000    -0.312000000    -1.356000000
H    -1.171000000    -1.703000000    -0.227000000
H    -2.161000000    -0.406000000     0.174000000
C     1.161000000    -0.603000000     0.568000000
H     1.254000000    -1.581000000     0.101000000
C     2.236000000     0.010000000     1.216000000
H     3.174000000    -0.540000000     1.211000000
C     2.150000000     1.344000000     1.765000000
C     3.264000000     1.975000000     2.501000000
O     4.157000000     1.290000000     2.924000000
O     3.137000000     3.097000000     2.926000000
O     5.978000000     6.191000000     0.610000000
H     6.016000000     5.496000000    -0.047000000
H     5.135000000     6.063000000     1.045000000
O     3.657000000     5.532000000     1.950000000
H     3.401000000     5.914000000     2.790000000
H     3.501000000     4.594000000     2.056000000
O     6.169000000    -0.471000000     3.331000000
H     5.785000000    -0.832000000     4.130000000
H     5.593000000     0.256000000     3.096000000
O     5.599000000     1.052000000     5.856000000
H     4.906000000     0.805000000     5.244000000
H     5.960000000     1.861000000     5.495000000
O     7.391000000    -2.025000000     5.774000000
H     7.066000000    -1.126000000     5.724000000
H     6.997000000    -2.377000000     6.573000000
O     2.769000000     2.083000000     8.152000000
H     3.254000000     2.342000000     7.368000000
H     1.911000000     1.812000000     7.825000000
O     8.702000000     0.991000000     3.492000000
H     7.993000000     0.367000000     3.644000000
H     8.395000000     1.529000000     2.762000000
O     3.235000000     3.212000000     5.700000000
H     3.192000000     3.069000000     4.755000000
H     3.749000000     4.013000000     5.798000000
O     2.492000000     7.559000000     3.927000000
H     2.562000000     8.340000000     4.476000000
H     1.551000000     7.391000000     3.869000000
O     5.745000000     5.007000000     6.015000000
H     5.456000000     5.014000000     6.927000000
H     5.647000000     5.915000000     5.726000000
O     7.655000000     2.595000000     0.950000000
H     6.953000000     2.783000000     0.327000000
H     8.460000000     2.769000000     0.463000000
O     2.867000000     3.769000000    -0.529000000
H     2.199000000     4.396000000    -0.807000000
H     2.493000000     3.347000000     0.245000000
O     5.809000000     0.895000000     8.623000000
H     6.728000000     1.164000000     8.645000000
H     5.588000000     0.873000000     7.692000000
O     6.009000000     3.158000000     4.053000000
H     5.126000000     3.149000000     3.684000000
H     5.972000000     3.814000000     4.749000000
O     5.097000000     1.273000000    -0.220000000
H     4.817000000     1.145000000     0.687000000
H     4.854000000     0.459000000    -0.662000000
O     7.560000000     7.338000000     3.044000000
H     6.943000000     7.674000000     3.694000000
H     7.010000000     6.896000000     2.397000000
O     8.496000000     4.744000000     3.947000000
H     8.019000000     5.565000000     3.825000000
H     7.872000000     4.064000000     3.694000000
O     5.422000000     3.837000000    -1.346000000
H     4.489000000     3.980000000    -1.187000000
H     5.634000000     3.054000000    -0.838000000
O     7.557000000    -1.364000000     1.232000000
H     7.722000000    -0.475000000     0.916000000
H     7.137000000    -1.241000000     2.084000000
