218
-1454.91509
C     3.892000000    -3.272000000     3.128000000
H     4.218000000    -3.977000000     2.368000000
C     2.472000000    -2.879000000     3.317000000
C     2.107000000    -1.867000000     4.159000000
H     1.059000000    -1.602000000     4.277000000
C     1.418000000    -3.575000000     2.444000000
O     2.061000000    -4.561000000     1.665000000
H     1.151000000    -2.711000000     1.819000000
O     0.272000000    -4.078000000     3.180000000
C    -0.971000000    -3.847000000     2.617000000
C    -1.842000000    -2.896000000     3.152000000
H    -1.584000000    -2.259000000     3.994000000
C    -3.085000000    -2.605000000     2.546000000
O    -3.695000000    -1.403000000     3.029000000
C    -3.441000000    -3.261000000     1.340000000
C    -4.767000000    -2.979000000     0.695000000
H    -5.143000000    -3.900000000     0.244000000
C    -4.756000000    -1.807000000    -0.294000000
C    -4.396000000    -2.056000000    -1.649000000
H    -4.315000000    -3.062000000    -2.052000000
H    -5.484000000    -2.672000000     1.460000000
C    -2.553000000    -4.208000000     0.791000000
H    -2.779000000    -4.629000000    -0.185000000
C    -1.363000000    -4.531000000     1.401000000
C    -0.466000000    -5.541000000     0.713000000
H    -1.178000000    -6.226000000     0.248000000
H    -0.008000000    -6.156000000     1.490000000
C     0.609000000    -4.989000000    -0.220000000
C     0.317000000    -4.842000000    -1.518000000
H    -0.618000000    -5.242000000    -1.901000000
C     1.809000000    -4.539000000     0.284000000
C     2.675000000    -3.803000000    -0.468000000
H     3.632000000    -3.489000000    -0.059000000
C     2.451000000    -3.654000000    -1.818000000
O     3.242000000    -2.759000000    -2.532000000
C     2.669000000    -1.451000000    -2.633000000
C     3.763000000    -0.400000000    -2.382000000
C     3.524000000     0.989000000    -2.698000000
H     2.664000000     1.234000000    -3.316000000
C     4.945000000    -0.740000000    -1.662000000
H     5.018000000    -1.758000000    -1.289000000
O     2.139000000    -1.311000000    -3.938000000
H     1.863000000    -1.304000000    -1.899000000
C     1.230000000    -4.235000000    -2.354000000
C     0.805000000    -3.990000000    -3.772000000
H     0.104000000    -4.703000000    -4.212000000
H     1.645000000    -3.937000000    -4.467000000
C     0.096000000    -2.673000000    -3.965000000
C    -1.315000000    -2.621000000    -3.753000000
H    -1.926000000    -3.491000000    -3.524000000
C     0.811000000    -1.489000000    -4.129000000
C     0.055000000    -0.306000000    -4.315000000
H     0.584000000     0.634000000    -4.446000000
C    -1.354000000    -0.266000000    -4.346000000
O    -1.996000000     1.021000000    -4.522000000
C    -2.446000000     1.614000000    -3.213000000
C    -2.130000000     3.075000000    -3.066000000
C    -0.981000000     3.611000000    -3.634000000
H    -0.312000000     2.926000000    -4.149000000
C    -2.999000000     3.901000000    -2.292000000
H    -3.954000000     3.467000000    -2.004000000
O    -3.846000000     1.315000000    -2.904000000
H    -1.789000000     1.206000000    -2.431000000
C    -2.057000000    -1.474000000    -4.071000000
C    -3.570000000    -1.317000000    -4.031000000
H    -3.945000000    -2.220000000    -4.517000000
H    -3.956000000    -0.568000000    -4.727000000
C    -4.088000000    -1.041000000    -2.590000000
C    -4.186000000     0.276000000    -2.113000000
C    -4.578000000     0.534000000    -0.826000000
H    -4.663000000     1.562000000    -0.482000000
C    -4.875000000    -0.472000000     0.124000000
O    -4.972000000    -0.171000000     1.518000000
C    -3.676000000    -0.270000000     2.193000000
H    -2.839000000    -0.399000000     1.492000000
C    -3.459000000     1.124000000     2.859000000
C    -2.366000000     1.279000000     3.597000000
H    -1.722000000     0.426000000     3.795000000
C    -4.264000000     2.195000000     2.531000000
H    -5.129000000     2.149000000     1.874000000
C    -3.996000000     3.439000000     3.000000000
O    -4.854000000     4.482000000     2.840000000
C    -2.916000000     3.621000000     3.873000000
H    -2.780000000     4.603000000     4.318000000
C    -2.064000000     2.537000000     4.114000000
O    -0.994000000     2.686000000     4.973000000
C    -0.345000000     1.655000000     5.649000000
C     0.956000000     1.375000000     5.334000000
H     1.421000000     1.959000000     4.544000000
C    -1.040000000     0.882000000     6.540000000
H    -2.077000000     1.126000000     6.754000000
C    -0.423000000    -0.161000000     7.168000000
H    -0.960000000    -0.794000000     7.870000000
C     0.870000000    -0.567000000     6.803000000
H     1.367000000    -1.431000000     7.235000000
C     1.512000000     0.222000000     5.887000000
O     2.801000000    -0.041000000     5.548000000
C     3.107000000    -1.178000000     4.815000000
C     4.458000000    -1.525000000     4.721000000
H     5.182000000    -1.004000000     5.343000000
C     4.841000000    -2.553000000     3.919000000
O     6.147000000    -2.821000000     3.679000000
C     6.663000000    -2.672000000     2.385000000
C     6.584000000    -1.384000000     1.724000000
H     6.101000000    -0.553000000     2.230000000
C     7.177000000    -3.771000000     1.738000000
H     7.161000000    -4.772000000     2.163000000
C     7.694000000    -3.630000000     0.408000000
H     7.984000000    -4.512000000    -0.158000000
C     7.591000000    -2.409000000    -0.187000000
H     8.022000000    -2.256000000    -1.173000000
C     7.038000000    -1.296000000     0.455000000
O     6.784000000    -0.086000000    -0.243000000
C     5.786000000     0.207000000    -1.111000000
C     5.504000000     1.528000000    -1.429000000
H     6.044000000     2.339000000    -0.947000000
C     4.508000000     1.924000000    -2.331000000
O     4.287000000     3.217000000    -2.478000000
C     3.559000000     3.895000000    -3.424000000
C     2.268000000     4.368000000    -3.118000000
H     1.834000000     4.291000000    -2.124000000
C     4.141000000     4.093000000    -4.665000000
H     5.116000000     3.656000000    -4.863000000
C     3.511000000     4.788000000    -5.643000000
H     4.047000000     5.060000000    -6.549000000
C     2.191000000     5.201000000    -5.404000000
H     1.585000000     5.591000000    -6.217000000
C     1.599000000     4.994000000    -4.158000000
O     0.373000000     5.550000000    -3.971000000
C    -0.718000000     4.958000000    -3.458000000
C    -1.599000000     5.727000000    -2.690000000
H    -1.436000000     6.800000000    -2.638000000
C    -2.734000000     5.233000000    -2.045000000
O    -3.619000000     6.027000000    -1.411000000
C    -4.646000000     5.655000000    -0.543000000
C    -5.964000000     5.941000000    -0.860000000
H    -6.145000000     6.209000000    -1.898000000
C    -6.992000000     5.744000000     0.065000000
H    -7.988000000     6.069000000    -0.224000000
C    -6.674000000     5.248000000     1.388000000
H    -7.375000000     5.305000000     2.217000000
C    -5.320000000     4.885000000     1.628000000
C    -4.357000000     5.165000000     0.695000000
H    -3.300000000     5.063000000     0.927000000
C     0.102000000     2.737000000     0.355000000
H    -0.338000000     3.718000000     0.197000000
C    -0.571000000     1.570000000    -0.063000000
H    -1.560000000     1.733000000    -0.485000000
C     0.040000000     0.320000000     0.005000000
C    -0.635000000    -0.939000000    -0.490000000
H    -1.577000000    -0.994000000     0.060000000
H    -0.948000000    -0.962000000    -1.536000000
H    -0.053000000    -1.832000000    -0.254000000
C     1.321000000     0.186000000     0.508000000
H     1.774000000    -0.802000000     0.476000000
C     1.956000000     1.278000000     1.027000000
H     2.881000000     1.161000000     1.586000000
C     1.297000000     2.530000000     1.058000000
C     1.895000000     3.671000000     1.816000000
O     2.828000000     3.474000000     2.560000000
O     1.639000000     4.836000000     1.573000000
O     1.119000000     6.047000000     5.564000000
H     1.365000000     5.358000000     6.181000000
H     0.161000000     6.045000000     5.573000000
O     6.686000000     5.391000000    -1.581000000
H     5.948000000     5.724000000    -1.069000000
H     6.402000000     5.472000000    -2.491000000
O     4.928000000     8.113000000     2.889000000
H     4.236000000     7.475000000     2.714000000
H     4.763000000     8.405000000     3.786000000
O     1.127000000     9.714000000     1.234000000
H     0.349000000     9.695000000     0.676000000
H     0.888000000     9.186000000     1.996000000
O     4.151000000     2.599000000     6.290000000
H     4.033000000     1.650000000     6.242000000
H     4.419000000     2.852000000     5.406000000
O     1.377000000     6.698000000    -0.420000000
H     0.533000000     7.078000000    -0.179000000
H     1.403000000     5.859000000     0.040000000
O     4.147000000     7.386000000    -0.848000000
H     4.172000000     8.022000000    -0.133000000
H     3.226000000     7.130000000    -0.907000000
O    -2.594000000     8.150000000     1.167000000
H    -2.142000000     7.363000000     1.471000000
H    -3.495000000     8.041000000     1.470000000
O     6.536000000     6.639000000     5.998000000
H     5.821000000     6.357000000     5.427000000
H     7.313000000     6.212000000     5.636000000
O     7.369000000     5.752000000     1.696000000
H     6.666000000     5.294000000     1.236000000
H     7.501000000     6.555000000     1.192000000
O     7.364000000     1.133000000     4.142000000
H     8.072000000     1.707000000     3.849000000
H     6.564000000     1.626000000     3.958000000
O     4.843000000     4.861000000     1.023000000
H     4.402000000     5.705000000     0.931000000
H     4.177000000     4.280000000     1.391000000
O     2.914000000     6.528000000     3.134000000
H     2.535000000     5.994000000     2.435000000
H     2.309000000     6.423000000     3.869000000
O     1.650000000     4.437000000     7.523000000
H     2.568000000     4.675000000     7.652000000
H     1.621000000     3.496000000     7.694000000
O     5.182000000     3.322000000     3.759000000
H     4.308000000     3.349000000     3.370000000
H     5.767000000     3.594000000     3.052000000
O     4.382000000     4.884000000     7.663000000
H     5.287000000     5.067000000     7.918000000
H     4.439000000     4.089000000     7.132000000
O     3.175000000     7.382000000     7.419000000
H     3.890000000     6.745000000     7.432000000
H     2.541000000     7.018000000     6.801000000
O    -0.933000000     5.723000000     2.169000000
H    -0.051000000     5.359000000     2.250000000
H    -1.150000000     6.024000000     3.051000000
O    -1.925000000     6.898000000     4.371000000
H    -1.243000000     7.482000000     4.703000000
H    -2.636000000     6.975000000     5.007000000
