218
-1468.96418
C     2.571000000    -2.279000000     3.819000000
H     3.091000000    -2.684000000     2.955000000
C     1.210000000    -2.670000000     4.051000000
C     0.565000000    -2.385000000     5.279000000
H    -0.497000000    -2.565000000     5.424000000
C     0.367000000    -3.212000000     2.930000000
O     0.936000000    -4.365000000     2.230000000
H     0.272000000    -2.438000000     2.154000000
O    -0.958000000    -3.572000000     3.422000000
C    -2.046000000    -3.270000000     2.707000000
C    -2.684000000    -2.099000000     3.072000000
H    -2.324000000    -1.533000000     3.927000000
C    -3.683000000    -1.578000000     2.312000000
O    -4.134000000    -0.297000000     2.610000000
C    -4.156000000    -2.267000000     1.158000000
C    -5.336000000    -1.794000000     0.321000000
H    -5.832000000    -2.642000000    -0.154000000
C    -4.888000000    -0.878000000    -0.786000000
C    -4.455000000    -1.419000000    -1.963000000
H    -4.476000000    -2.496000000    -2.112000000
H    -5.987000000    -1.191000000     0.958000000
C    -3.462000000    -3.486000000     0.817000000
H    -3.891000000    -4.041000000    -0.013000000
C    -2.372000000    -3.975000000     1.548000000
C    -1.626000000    -5.217000000     1.067000000
H    -2.288000000    -5.798000000     0.422000000
H    -1.361000000    -5.871000000     1.901000000
C    -0.385000000    -4.894000000     0.193000000
C    -0.480000000    -5.068000000    -1.202000000
H    -1.417000000    -5.500000000    -1.544000000
C     0.818000000    -4.524000000     0.810000000
C     1.956000000    -4.312000000     0.074000000
H     2.916000000    -3.992000000     0.470000000
C     1.811000000    -4.346000000    -1.324000000
O     2.789000000    -3.706000000    -2.062000000
C     2.662000000    -2.311000000    -2.343000000
C     3.996000000    -1.614000000    -2.182000000
C     4.278000000    -0.517000000    -3.092000000
H     3.687000000    -0.370000000    -3.992000000
C     4.813000000    -1.885000000    -1.094000000
H     4.630000000    -2.724000000    -0.428000000
O     2.263000000    -2.333000000    -3.735000000
H     1.827000000    -1.925000000    -1.739000000
C     0.657000000    -4.711000000    -2.003000000
C     0.404000000    -4.615000000    -3.464000000
H    -0.299000000    -5.357000000    -3.848000000
H     1.332000000    -4.817000000    -4.002000000
C    -0.008000000    -3.230000000    -3.896000000
C    -1.371000000    -2.897000000    -3.946000000
H    -2.070000000    -3.726000000    -3.874000000
C     0.903000000    -2.170000000    -3.996000000
C     0.455000000    -0.903000000    -4.361000000
H     1.082000000    -0.015000000    -4.356000000
C    -0.907000000    -0.625000000    -4.479000000
O    -1.155000000     0.677000000    -4.794000000
C    -1.578000000     1.515000000    -3.692000000
C    -1.023000000     2.974000000    -3.814000000
C     0.287000000     3.067000000    -4.274000000
H     0.827000000     2.228000000    -4.706000000
C    -1.722000000     4.105000000    -3.392000000
H    -2.664000000     4.024000000    -2.856000000
O    -3.059000000     1.495000000    -3.631000000
H    -1.222000000     1.023000000    -2.775000000
C    -1.828000000    -1.597000000    -4.167000000
C    -3.330000000    -1.304000000    -4.168000000
H    -3.882000000    -2.236000000    -4.310000000
H    -3.605000000    -0.676000000    -5.018000000
C    -3.724000000    -0.669000000    -2.892000000
C    -3.703000000     0.712000000    -2.712000000
C    -4.075000000     1.351000000    -1.486000000
H    -3.794000000     2.363000000    -1.207000000
C    -4.692000000     0.513000000    -0.552000000
O    -4.782000000     0.987000000     0.726000000
C    -3.685000000     0.720000000     1.686000000
H    -2.816000000     0.345000000     1.126000000
C    -3.249000000     2.038000000     2.364000000
C    -2.320000000     1.949000000     3.463000000
H    -2.051000000     0.952000000     3.802000000
C    -3.419000000     3.269000000     1.762000000
H    -3.871000000     3.384000000     0.780000000
C    -2.999000000     4.436000000     2.432000000
O    -3.218000000     5.692000000     1.869000000
C    -2.244000000     4.364000000     3.621000000
H    -1.801000000     5.253000000     4.063000000
C    -1.806000000     3.098000000     4.047000000
O    -0.973000000     2.967000000     5.163000000
C    -1.238000000     1.958000000     6.076000000
C    -0.363000000     0.892000000     6.097000000
H     0.317000000     0.830000000     5.252000000
C    -2.263000000     2.049000000     6.979000000
H    -3.032000000     2.817000000     6.978000000
C    -2.305000000     1.165000000     8.013000000
H    -3.070000000     1.362000000     8.759000000
C    -1.301000000     0.221000000     8.167000000
H    -1.336000000    -0.397000000     9.061000000
C    -0.337000000     0.030000000     7.183000000
O     0.585000000    -1.009000000     7.218000000
C     1.235000000    -1.561000000     6.152000000
C     2.544000000    -1.124000000     5.919000000
H     3.037000000    -0.463000000     6.628000000
C     3.226000000    -1.453000000     4.721000000
O     4.436000000    -0.883000000     4.513000000
C     5.316000000    -1.581000000     3.733000000
C     5.669000000    -1.078000000     2.455000000
H     5.283000000    -0.094000000     2.199000000
C     5.687000000    -2.885000000     4.089000000
H     5.316000000    -3.283000000     5.030000000
C     6.442000000    -3.600000000     3.139000000
H     6.611000000    -4.659000000     3.315000000
C     6.797000000    -3.066000000     1.852000000
H     7.321000000    -3.739000000     1.178000000
C     6.409000000    -1.809000000     1.539000000
O     6.698000000    -1.317000000     0.262000000
C     5.901000000    -1.040000000    -0.824000000
C     6.209000000     0.001000000    -1.701000000
H     7.142000000     0.554000000    -1.621000000
C     5.431000000     0.265000000    -2.809000000
O     5.799000000     1.260000000    -3.710000000
C     4.963000000     1.995000000    -4.565000000
C     3.951000000     2.802000000    -4.044000000
H     3.800000000     2.826000000    -2.968000000
C     5.197000000     1.867000000    -5.928000000
H     6.095000000     1.298000000    -6.151000000
C     4.390000000     2.594000000    -6.854000000
H     4.554000000     2.582000000    -7.929000000
C     3.382000000     3.441000000    -6.308000000
H     2.721000000     4.012000000    -6.954000000
C     3.159000000     3.569000000    -4.928000000
O     2.344000000     4.522000000    -4.562000000
C     0.927000000     4.312000000    -4.292000000
C     0.282000000     5.419000000    -3.771000000
H     0.822000000     6.355000000    -3.655000000
C    -0.993000000     5.303000000    -3.275000000
O    -1.475000000     6.463000000    -2.570000000
C    -2.474000000     6.374000000    -1.605000000
C    -3.797000000     6.473000000    -2.100000000
H    -3.922000000     6.792000000    -3.131000000
C    -4.849000000     6.376000000    -1.156000000
H    -5.877000000     6.573000000    -1.448000000
C    -4.667000000     6.076000000     0.097000000
H    -5.484000000     5.968000000     0.806000000
C    -3.407000000     5.910000000     0.525000000
C    -2.258000000     6.061000000    -0.298000000
H    -1.284000000     5.825000000     0.124000000
C    -0.077000000     2.624000000     0.572000000
H    -0.547000000     3.601000000     0.504000000
C    -0.709000000     1.421000000     0.083000000
H    -1.655000000     1.363000000    -0.448000000
C     0.032000000     0.293000000     0.162000000
C    -0.556000000    -1.015000000    -0.298000000
H    -0.592000000    -1.033000000    -1.390000000
H     0.070000000    -1.873000000    -0.048000000
H    -1.566000000    -1.258000000     0.039000000
C     1.286000000     0.243000000     0.748000000
H     1.827000000    -0.685000000     0.916000000
C     1.803000000     1.348000000     1.386000000
H     2.678000000     1.252000000     2.024000000
C     1.100000000     2.546000000     1.352000000
C     1.572000000     3.731000000     2.120000000
O     2.470000000     3.559000000     2.882000000
O     1.170000000     4.859000000     1.995000000
O     0.815000000     4.234000000     7.475000000
H     0.569000000     5.059000000     7.055000000
H     0.819000000     3.595000000     6.762000000
O     5.505000000     7.401000000     0.602000000
H     5.147000000     6.705000000     0.050000000
H     5.086000000     7.272000000     1.453000000
O     5.659000000     5.212000000    -1.058000000
H     5.431000000     4.299000000    -0.883000000
H     5.558000000     5.307000000    -2.005000000
O     5.116000000     4.012000000     2.914000000
H     4.996000000     4.756000000     3.504000000
H     4.264000000     3.575000000     2.903000000
O     2.488000000     2.685000000     5.450000000
H     2.372000000     3.098000000     4.594000000
H     3.238000000     2.101000000     5.334000000
O     7.045000000     3.902000000     1.088000000
H     6.342000000     4.003000000     1.730000000
H     6.873000000     4.581000000     0.436000000
O     0.775000000     7.470000000    -0.723000000
H     0.142000000     8.125000000    -1.015000000
H     1.601000000     7.740000000    -1.125000000
O     5.088000000     4.061000000     6.332000000
H     5.561000000     3.265000000     6.087000000
H     5.601000000     4.772000000     5.948000000
O     2.918000000     8.243000000     4.954000000
H     2.032000000     7.897000000     5.062000000
H     3.472000000     7.641000000     5.451000000
O    -1.095000000     8.094000000     3.822000000
H    -0.407000000     7.963000000     3.169000000
H    -1.886000000     8.255000000     3.307000000
O     2.042000000     4.659000000    -0.960000000
H     1.679000000     5.018000000    -1.769000000
H     1.628000000     5.169000000    -0.264000000
O     6.321000000     2.032000000     4.514000000
H     7.153000000     2.342000000     4.156000000
H     5.663000000     2.603000000     4.119000000
O     4.110000000     9.830000000     0.666000000
H     4.388000000     8.922000000     0.787000000
H     3.368000000     9.776000000     0.064000000
O     2.294000000     5.347000000     4.950000000
H     2.304000000     4.875000000     4.118000000
H     2.642000000     4.722000000     5.586000000
O     3.281000000     6.694000000     2.336000000
H     2.870000000     5.863000000     2.096000000
H     2.549000000     7.261000000     2.580000000
O     4.255000000     3.070000000    -0.605000000
H     3.691000000     2.299000000    -0.663000000
H     3.655000000     3.793000000    -0.422000000
O     0.194000000     6.410000000     5.922000000
H    -0.446000000     6.642000000     5.249000000
H     0.910000000     5.998000000     5.440000000
O     5.677000000     7.691000000     4.039000000
H     4.823000000     7.744000000     3.610000000
H     5.471000000     7.565000000     4.966000000
O     0.636000000     7.430000000     1.996000000
H     0.621000000     6.473000000     1.965000000
H     0.615000000     7.700000000     1.078000000
