218
-1472.76191
C     3.460000000    -2.045000000     3.449000000
H     3.836000000    -2.818000000     2.785000000
C     2.086000000    -1.876000000     3.640000000
C     1.679000000    -0.822000000     4.427000000
H     0.608000000    -0.724000000     4.585000000
C     1.119000000    -2.876000000     2.998000000
O     1.791000000    -4.041000000     2.472000000
H     0.757000000    -2.254000000     2.166000000
O     0.028000000    -3.109000000     3.858000000
C    -1.216000000    -2.941000000     3.233000000
C    -1.970000000    -1.786000000     3.511000000
H    -1.678000000    -1.111000000     4.312000000
C    -3.132000000    -1.580000000     2.754000000
O    -3.871000000    -0.508000000     3.038000000
C    -3.591000000    -2.464000000     1.725000000
C    -4.868000000    -2.255000000     0.924000000
H    -5.145000000    -3.197000000     0.447000000
C    -4.666000000    -1.310000000    -0.216000000
C    -4.374000000    -1.842000000    -1.432000000
H    -4.502000000    -2.906000000    -1.609000000
H    -5.634000000    -1.841000000     1.583000000
C    -2.799000000    -3.569000000     1.471000000
H    -3.019000000    -4.371000000     0.771000000
C    -1.680000000    -3.810000000     2.230000000
C    -0.860000000    -4.983000000     1.811000000
H    -1.508000000    -5.818000000     1.536000000
H    -0.227000000    -5.243000000     2.662000000
C     0.161000000    -4.655000000     0.788000000
C    -0.136000000    -4.865000000    -0.576000000
H    -1.111000000    -5.236000000    -0.879000000
C     1.484000000    -4.250000000     1.180000000
C     2.436000000    -4.042000000     0.242000000
H     3.376000000    -3.539000000     0.453000000
C     2.090000000    -4.117000000    -1.108000000
O     3.000000000    -3.482000000    -1.938000000
C     2.656000000    -2.205000000    -2.509000000
C     3.982000000    -1.381000000    -2.564000000
C     4.118000000    -0.427000000    -3.582000000
H     3.494000000    -0.378000000    -4.471000000
C     4.958000000    -1.531000000    -1.543000000
H     4.885000000    -2.360000000    -0.843000000
O     2.114000000    -2.391000000    -3.816000000
H     1.962000000    -1.739000000    -1.794000000
C     0.836000000    -4.560000000    -1.597000000
C     0.501000000    -4.556000000    -3.028000000
H    -0.270000000    -5.317000000    -3.167000000
H     1.315000000    -4.903000000    -3.668000000
C    -0.068000000    -3.283000000    -3.433000000
C    -1.466000000    -3.100000000    -3.521000000
H    -2.057000000    -3.894000000    -3.072000000
C     0.762000000    -2.283000000    -3.908000000
C     0.243000000    -1.020000000    -4.342000000
H     0.895000000    -0.193000000    -4.613000000
C    -1.172000000    -0.868000000    -4.350000000
O    -1.664000000     0.386000000    -4.612000000
C    -2.133000000     1.182000000    -3.470000000
C    -1.640000000     2.591000000    -3.428000000
C    -0.335000000     2.810000000    -3.680000000
H     0.329000000     1.995000000    -3.956000000
C    -2.464000000     3.669000000    -3.120000000
H    -3.514000000     3.508000000    -2.892000000
O    -3.594000000     1.123000000    -3.263000000
H    -1.696000000     0.713000000    -2.577000000
C    -2.015000000    -1.916000000    -3.915000000
C    -3.534000000    -1.705000000    -3.794000000
H    -3.891000000    -2.728000000    -3.933000000
H    -3.922000000    -1.114000000    -4.626000000
C    -4.006000000    -1.099000000    -2.498000000
C    -4.022000000     0.323000000    -2.271000000
C    -4.359000000     0.886000000    -1.054000000
H    -4.387000000     1.968000000    -0.953000000
C    -4.741000000     0.096000000    -0.005000000
O    -4.996000000     0.535000000     1.269000000
C    -3.772000000     0.502000000     1.990000000
H    -2.907000000     0.240000000     1.363000000
C    -3.655000000     1.913000000     2.502000000
C    -3.007000000     2.019000000     3.738000000
H    -2.748000000     1.081000000     4.222000000
C    -4.217000000     3.090000000     1.962000000
H    -4.797000000     3.049000000     1.043000000
C    -3.954000000     4.332000000     2.514000000
O    -4.502000000     5.452000000     1.928000000
C    -3.165000000     4.381000000     3.721000000
H    -2.945000000     5.352000000     4.156000000
C    -2.768000000     3.260000000     4.328000000
O    -2.210000000     3.320000000     5.579000000
C    -1.391000000     2.354000000     6.185000000
C    -0.096000000     2.049000000     5.679000000
H     0.308000000     2.606000000     4.838000000
C    -1.796000000     1.720000000     7.360000000
H    -2.809000000     1.978000000     7.655000000
C    -0.967000000     0.824000000     7.957000000
H    -1.258000000     0.297000000     8.862000000
C     0.269000000     0.510000000     7.453000000
H     1.041000000    -0.086000000     7.932000000
C     0.815000000     1.190000000     6.307000000
O     2.087000000     1.026000000     5.928000000
C     2.567000000    -0.098000000     5.162000000
C     3.967000000    -0.295000000     5.043000000
H     4.663000000     0.327000000     5.601000000
C     4.392000000    -1.264000000     4.173000000
O     5.726000000    -1.313000000     3.902000000
C     6.404000000    -1.756000000     2.771000000
C     6.330000000    -1.000000000     1.588000000
H     5.739000000    -0.089000000     1.643000000
C     7.151000000    -2.962000000     2.942000000
H     7.118000000    -3.580000000     3.835000000
C     7.812000000    -3.451000000     1.815000000
H     8.387000000    -4.372000000     1.849000000
C     7.770000000    -2.657000000     0.652000000
H     8.189000000    -3.083000000    -0.255000000
C     7.148000000    -1.374000000     0.520000000
O     7.078000000    -0.715000000    -0.622000000
C     6.087000000    -0.698000000    -1.589000000
C     6.125000000     0.385000000    -2.482000000
H     6.981000000     1.046000000    -2.378000000
C     5.236000000     0.439000000    -3.480000000
O     5.344000000     1.435000000    -4.444000000
C     4.205000000     1.983000000    -5.000000000
C     3.462000000     2.909000000    -4.328000000
H     3.806000000     3.365000000    -3.403000000
C     3.735000000     1.469000000    -6.201000000
H     4.377000000     0.810000000    -6.780000000
C     2.517000000     1.842000000    -6.695000000
H     2.161000000     1.425000000    -7.634000000
C     1.698000000     2.630000000    -5.883000000
H     0.678000000     2.887000000    -6.155000000
C     2.238000000     3.323000000    -4.845000000
O     1.556000000     4.340000000    -4.151000000
C     0.222000000     4.119000000    -3.763000000
C    -0.551000000     5.176000000    -3.196000000
H    -0.110000000     6.159000000    -3.050000000
C    -1.898000000     5.005000000    -3.001000000
O    -2.620000000     6.107000000    -2.517000000
C    -3.693000000     5.819000000    -1.746000000
C    -4.958000000     6.035000000    -2.233000000
H    -5.097000000     6.162000000    -3.303000000
C    -6.076000000     5.998000000    -1.417000000
H    -7.093000000     6.008000000    -1.801000000
C    -5.884000000     5.736000000    -0.031000000
H    -6.731000000     5.666000000     0.647000000
C    -4.611000000     5.605000000     0.521000000
C    -3.518000000     5.746000000    -0.318000000
H    -2.559000000     5.679000000     0.189000000
C     1.275000000     2.070000000    -1.079000000
H     1.914000000     2.322000000    -1.921000000
C     0.837000000     0.748000000    -1.082000000
H     1.190000000     0.128000000    -1.903000000
C    -0.027000000     0.257000000    -0.054000000
C    -0.638000000    -1.109000000    -0.041000000
H     0.113000000    -1.800000000    -0.429000000
H    -1.049000000    -1.487000000     0.897000000
H    -1.473000000    -1.245000000    -0.731000000
C    -0.280000000     1.082000000     0.994000000
H    -0.785000000     0.809000000     1.917000000
C     0.130000000     2.458000000     0.937000000
H    -0.204000000     3.076000000     1.767000000
C     0.917000000     2.956000000    -0.076000000
C     1.406000000     4.397000000     0.057000000
O     0.950000000     5.057000000     0.956000000
O     2.237000000     4.903000000    -0.703000000
O     7.414000000     4.740000000    -2.819000000
H     7.161000000     4.450000000    -3.695000000
H     6.585000000     4.859000000    -2.356000000
O    -0.806000000     7.986000000     4.586000000
H    -0.942000000     8.927000000     4.476000000
H     0.140000000     7.892000000     4.699000000
O     2.342000000     6.973000000     4.153000000
H     3.152000000     6.857000000     3.658000000
H     1.889000000     6.133000000     4.074000000
O    -0.948000000     6.580000000     1.733000000
H    -0.567000000     6.464000000     2.604000000
H    -0.382000000     6.069000000     1.154000000
O     4.761000000     4.869000000    -1.435000000
H     3.818000000     4.727000000    -1.358000000
H     4.924000000     5.672000000    -0.940000000
O     2.113000000     7.493000000    -5.039000000
H     2.065000000     7.195000000    -4.130000000
H     2.071000000     6.689000000    -5.557000000
O    -1.793000000     8.494000000     0.070000000
H    -1.730000000     7.743000000     0.660000000
H    -2.630000000     8.375000000    -0.380000000
O     4.114000000     9.579000000     1.239000000
H     3.688000000     9.498000000     2.093000000
H     3.714000000     8.893000000     0.706000000
O     4.630000000     6.960000000     2.824000000
H     5.391000000     7.384000000     3.220000000
H     4.803000000     6.023000000     2.916000000
O     7.228000000     5.607000000     1.684000000
H     6.684000000     6.293000000     1.297000000
H     7.131000000     5.730000000     2.629000000
O     1.262000000     8.881000000    -0.713000000
H     1.821000000     8.532000000    -0.018000000
H     0.429000000     8.422000000    -0.603000000
O     3.023000000     7.282000000     0.590000000
H     2.688000000     6.430000000     0.310000000
H     3.661000000     7.076000000     1.272000000
O     1.833000000     4.391000000     3.459000000
H     2.143000000     3.486000000     3.415000000
H     1.593000000     4.605000000     2.558000000
O     6.134000000     7.173000000    -0.501000000
H     7.030000000     7.507000000    -0.552000000
H     5.630000000     7.749000000    -1.075000000
O     4.880000000     4.335000000     3.955000000
H     4.415000000     4.129000000     4.766000000
H     4.472000000     3.775000000     3.295000000
O     3.849000000     2.409000000     2.012000000
H     4.765000000     2.277000000     1.765000000
H     3.386000000     2.490000000     1.178000000
O     4.582000000     8.453000000    -2.406000000
H     4.457000000     9.064000000    -3.132000000
H     3.820000000     7.875000000    -2.446000000
O     6.315000000     2.916000000    -0.319000000
H     5.725000000     3.250000000    -0.995000000
H     6.422000000     3.649000000     0.288000000
O     2.284000000     6.815000000    -2.426000000
H     1.626000000     7.344000000    -1.976000000
H     2.366000000     6.026000000    -1.890000000
