218
-1475.19382
C     1.778000000    -2.219000000     4.686000000
H     2.239000000    -3.088000000     4.222000000
C     0.446000000    -1.874000000     4.504000000
C     0.057000000    -0.674000000     5.019000000
H    -0.920000000    -0.267000000     4.770000000
C    -0.414000000    -2.566000000     3.388000000
O     0.004000000    -3.940000000     3.279000000
H    -0.419000000    -2.024000000     2.430000000
O    -1.714000000    -2.452000000     3.796000000
C    -2.715000000    -2.205000000     2.836000000
C    -3.237000000    -0.919000000     2.752000000
H    -3.063000000    -0.178000000     3.528000000
C    -4.093000000    -0.572000000     1.697000000
O    -4.304000000     0.752000000     1.582000000
C    -4.440000000    -1.491000000     0.725000000
C    -5.363000000    -1.121000000    -0.369000000
H    -5.916000000    -2.024000000    -0.634000000
C    -4.639000000    -0.505000000    -1.486000000
C    -4.167000000    -1.324000000    -2.543000000
H    -4.310000000    -2.398000000    -2.456000000
H    -6.092000000    -0.411000000     0.028000000
C    -3.957000000    -2.800000000     0.856000000
H    -4.278000000    -3.625000000     0.226000000
C    -3.055000000    -3.150000000     1.899000000
C    -2.494000000    -4.541000000     2.022000000
H    -3.231000000    -5.258000000     1.655000000
H    -2.373000000    -4.806000000     3.075000000
C    -1.184000000    -4.722000000     1.327000000
C    -1.141000000    -4.969000000    -0.027000000
H    -2.022000000    -5.236000000    -0.604000000
C     0.021000000    -4.456000000     1.989000000
C     1.240000000    -4.426000000     1.330000000
H     2.122000000    -4.112000000     1.881000000
C     1.276000000    -4.616000000    -0.014000000
O     2.425000000    -4.286000000    -0.723000000
C     2.563000000    -2.966000000    -1.231000000
C     4.004000000    -2.375000000    -0.981000000
C     4.526000000    -1.431000000    -1.838000000
H     4.024000000    -1.153000000    -2.761000000
C     4.647000000    -2.723000000     0.184000000
H     4.132000000    -3.430000000     0.829000000
O     2.356000000    -3.074000000    -2.707000000
H     1.772000000    -2.302000000    -0.854000000
C     0.051000000    -4.922000000    -0.706000000
C     0.068000000    -5.003000000    -2.238000000
H    -0.781000000    -5.643000000    -2.487000000
H     0.950000000    -5.584000000    -2.515000000
C     0.022000000    -3.670000000    -2.992000000
C    -1.193000000    -3.227000000    -3.413000000
H    -2.050000000    -3.856000000    -3.187000000
C     1.148000000    -2.861000000    -3.254000000
C     0.993000000    -1.643000000    -3.922000000
H     1.833000000    -0.975000000    -4.097000000
C    -0.262000000    -1.291000000    -4.447000000
O    -0.323000000    -0.020000000    -4.850000000
C    -0.969000000     1.027000000    -4.123000000
C    -0.183000000     2.355000000    -4.329000000
C     1.179000000     2.361000000    -4.138000000
H     1.706000000     1.424000000    -3.981000000
C    -0.869000000     3.617000000    -4.532000000
H    -1.942000000     3.605000000    -4.709000000
O    -2.294000000     1.191000000    -4.449000000
H    -0.854000000     0.747000000    -3.066000000
C    -1.362000000    -2.013000000    -4.093000000
C    -2.747000000    -1.669000000    -4.591000000
H    -3.299000000    -2.604000000    -4.707000000
H    -2.835000000    -1.040000000    -5.480000000
C    -3.376000000    -0.753000000    -3.569000000
C    -3.149000000     0.586000000    -3.625000000
C    -3.648000000     1.391000000    -2.559000000
H    -3.486000000     2.466000000    -2.557000000
C    -4.393000000     0.883000000    -1.531000000
O    -4.607000000     1.666000000    -0.437000000
C    -3.646000000     1.528000000     0.598000000
H    -2.741000000     1.023000000     0.229000000
C    -3.267000000     2.920000000     1.134000000
C    -2.825000000     3.062000000     2.437000000
H    -2.871000000     2.194000000     3.091000000
C    -3.196000000     4.024000000     0.277000000
H    -3.583000000     3.878000000    -0.729000000
C    -2.555000000     5.194000000     0.717000000
O    -2.469000000     6.345000000    -0.049000000
C    -2.277000000     5.344000000     2.072000000
H    -1.871000000     6.251000000     2.513000000
C    -2.427000000     4.276000000     2.943000000
O    -2.161000000     4.436000000     4.301000000
C    -2.181000000     3.367000000     5.120000000
C    -0.941000000     2.891000000     5.416000000
H    -0.051000000     3.329000000     4.971000000
C    -3.350000000     2.820000000     5.650000000
H    -4.326000000     3.252000000     5.448000000
C    -3.256000000     1.767000000     6.515000000
H    -4.171000000     1.379000000     6.954000000
C    -1.981000000     1.242000000     6.863000000
H    -1.886000000     0.354000000     7.483000000
C    -0.840000000     1.772000000     6.217000000
O     0.426000000     1.266000000     6.438000000
C     0.903000000     0.134000000     5.839000000
C     2.198000000    -0.276000000     6.012000000
H     2.931000000     0.257000000     6.613000000
C     2.604000000    -1.514000000     5.516000000
O     3.904000000    -1.846000000     5.771000000
C     4.737000000    -2.542000000     4.907000000
C     5.187000000    -2.002000000     3.684000000
H     4.990000000    -0.963000000     3.433000000
C     5.056000000    -3.836000000     5.303000000
H     4.754000000    -4.338000000     6.219000000
C     5.974000000    -4.586000000     4.562000000
H     6.410000000    -5.483000000     4.993000000
C     6.489000000    -4.088000000     3.323000000
H     7.284000000    -4.650000000     2.839000000
C     6.060000000    -2.789000000     2.921000000
O     6.528000000    -2.276000000     1.728000000
C     5.923000000    -2.185000000     0.474000000
C     6.474000000    -1.197000000    -0.327000000
H     7.450000000    -0.782000000    -0.089000000
C     5.752000000    -0.782000000    -1.482000000
O     6.309000000     0.176000000    -2.299000000
C     5.576000000     0.802000000    -3.337000000
C     4.742000000     1.854000000    -3.018000000
H     4.644000000     2.206000000    -1.994000000
C     5.859000000     0.477000000    -4.677000000
H     6.569000000    -0.310000000    -4.920000000
C     5.160000000     1.127000000    -5.699000000
H     5.302000000     0.916000000    -6.756000000
C     4.437000000     2.257000000    -5.403000000
H     3.895000000     2.842000000    -6.142000000
C     4.150000000     2.541000000    -4.050000000
O     3.292000000     3.488000000    -3.596000000
C     1.946000000     3.558000000    -4.068000000
C     1.291000000     4.780000000    -4.134000000
H     1.927000000     5.651000000    -3.995000000
C    -0.086000000     4.855000000    -4.423000000
O    -0.685000000     6.052000000    -4.397000000
C    -1.778000000     6.241000000    -3.579000000
C    -3.000000000     6.433000000    -4.157000000
H    -3.106000000     6.348000000    -5.235000000
C    -4.128000000     6.544000000    -3.330000000
H    -5.105000000     6.573000000    -3.805000000
C    -3.974000000     6.547000000    -1.908000000
H    -4.814000000     6.713000000    -1.238000000
C    -2.714000000     6.441000000    -1.389000000
C    -1.608000000     6.239000000    -2.216000000
H    -0.645000000     5.961000000    -1.795000000
C     1.450000000     2.227000000    -0.479000000
H     2.027000000     2.739000000    -1.244000000
C     0.944000000     0.969000000    -0.799000000
H     1.286000000     0.615000000    -1.769000000
C     0.116000000     0.225000000     0.080000000
C    -0.413000000    -1.139000000    -0.189000000
H    -0.095000000    -1.999000000     0.405000000
H    -1.486000000    -1.129000000     0.014000000
H    -0.301000000    -1.356000000    -1.254000000
C    -0.272000000     0.871000000     1.272000000
H    -0.883000000     0.343000000     2.000000000
C     0.220000000     2.159000000     1.538000000
H    -0.125000000     2.565000000     2.485000000
C     0.998000000     2.857000000     0.639000000
C     1.338000000     4.269000000     0.864000000
O     1.093000000     4.825000000     1.898000000
O     1.872000000     4.933000000     0.009000000
O     3.134000000     4.133000000     6.667000000
H     2.696000000     3.401000000     6.232000000
H     3.845000000     3.726000000     7.162000000
O     0.076000000     5.328000000     6.835000000
H     0.854000000     5.014000000     7.295000000
H     0.407000000     5.654000000     5.998000000
O     0.104000000     7.295000000     1.111000000
H     0.251000000     7.498000000     0.187000000
H     0.435000000     6.403000000     1.216000000
O     3.296000000     7.739000000     5.860000000
H     2.898000000     8.600000000     5.986000000
H     2.685000000     7.274000000     5.288000000
O     6.523000000     4.520000000    -2.686000000
H     6.158000000     5.018000000    -1.954000000
H     6.621000000     3.631000000    -2.346000000
O     5.491000000     6.187000000     3.043000000
H     5.863000000     6.658000000     2.297000000
H     5.497000000     6.826000000     3.756000000
O     1.497000000    10.237000000     0.633000000
H     1.110000000     9.816000000     1.400000000
H     1.122000000     9.767000000    -0.112000000
O     3.440000000     4.540000000     3.549000000
H     3.102000000     4.750000000     2.679000000
H     4.348000000     4.843000000     3.534000000
O     1.156000000     9.276000000     3.402000000
H     0.964000000     8.349000000     3.257000000
H     0.302000000     9.674000000     3.569000000
O     5.771000000     2.509000000     1.240000000
H     5.527000000     3.330000000     0.812000000
H     6.596000000     2.258000000     0.825000000
O     2.165000000     6.879000000    -1.902000000
H     2.257000000     6.228000000    -1.206000000
H     2.944000000     6.760000000    -2.446000000
O    -1.519000000     9.430000000     1.261000000
H    -0.970000000     8.715000000     0.939000000
H    -1.925000000     9.793000000     0.474000000
O     5.232000000     1.349000000     5.103000000
H     4.345000000     1.530000000     4.791000000
H     5.759000000     2.069000000     4.756000000
O     1.309000000     5.790000000     4.485000000
H     2.086000000     5.245000000     4.605000000
H     0.997000000     5.573000000     3.606000000
O     4.610000000     4.621000000    -0.266000000
H     3.689000000     4.846000000    -0.139000000
H     5.043000000     5.460000000    -0.422000000
O     2.430000000     2.080000000     4.140000000
H     2.818000000     1.578000000     3.424000000
H     2.434000000     2.985000000     3.828000000
O     3.075000000     9.524000000    -1.667000000
H     3.773000000     9.879000000    -1.116000000
H     3.174000000     8.575000000    -1.595000000
O     0.083000000     8.436000000    -1.255000000
H    -0.499000000     8.547000000    -2.007000000
H     0.867000000     8.024000000    -1.617000000
O     3.403000000     0.899000000     1.961000000
H     4.054000000     1.576000000     1.777000000
H     2.972000000     0.746000000     1.120000000
