218
-1472.59625
C     2.112000000    -1.649000000     4.810000000
H     2.396000000    -2.576000000     4.318000000
C     0.851000000    -1.061000000     4.623000000
C     0.598000000     0.253000000     5.053000000
H    -0.357000000     0.755000000     4.925000000
C    -0.196000000    -1.835000000     3.841000000
O     0.032000000    -3.227000000     3.864000000
H    -0.131000000    -1.501000000     2.795000000
O    -1.568000000    -1.566000000     4.238000000
C    -2.585000000    -1.430000000     3.348000000
C    -3.033000000    -0.095000000     3.166000000
H    -2.469000000     0.699000000     3.648000000
C    -3.966000000     0.167000000     2.161000000
O    -4.273000000     1.503000000     1.983000000
C    -4.499000000    -0.852000000     1.396000000
C    -5.570000000    -0.573000000     0.355000000
H    -6.081000000    -1.516000000     0.149000000
C    -4.941000000    -0.099000000    -0.941000000
C    -4.711000000    -1.074000000    -1.899000000
H    -5.084000000    -2.086000000    -1.756000000
H    -6.251000000     0.178000000     0.760000000
C    -4.116000000    -2.135000000     1.638000000
H    -4.554000000    -2.921000000     1.028000000
C    -3.161000000    -2.439000000     2.594000000
C    -2.665000000    -3.901000000     2.895000000
H    -3.411000000    -4.627000000     2.563000000
H    -2.526000000    -3.895000000     3.978000000
C    -1.404000000    -4.125000000     2.137000000
C    -1.490000000    -4.654000000     0.864000000
H    -2.438000000    -5.027000000     0.485000000
C    -0.132000000    -3.803000000     2.622000000
C     0.961000000    -3.892000000     1.792000000
H     1.884000000    -3.495000000     2.206000000
C     0.816000000    -4.413000000     0.530000000
O     2.009000000    -4.475000000    -0.167000000
C     2.073000000    -3.391000000    -1.135000000
C     3.464000000    -2.686000000    -1.221000000
C     4.029000000    -2.312000000    -2.421000000
H     3.544000000    -2.484000000    -3.378000000
C     4.165000000    -2.459000000    -0.008000000
H     3.694000000    -2.663000000     0.950000000
O     1.661000000    -3.869000000    -2.404000000
H     1.392000000    -2.561000000    -0.896000000
C    -0.395000000    -4.844000000     0.059000000
C    -0.552000000    -5.326000000    -1.364000000
H    -1.351000000    -6.066000000    -1.280000000
H     0.371000000    -5.866000000    -1.586000000
C    -0.709000000    -4.172000000    -2.352000000
C    -1.977000000    -3.661000000    -2.748000000
H    -2.801000000    -4.174000000    -2.258000000
C     0.423000000    -3.550000000    -2.869000000
C     0.338000000    -2.496000000    -3.752000000
H     1.151000000    -1.935000000    -4.207000000
C    -0.917000000    -2.004000000    -4.058000000
O    -0.982000000    -0.837000000    -4.620000000
C    -1.272000000     0.302000000    -3.892000000
C    -0.181000000     1.387000000    -4.098000000
C     0.973000000     1.135000000    -4.898000000
H     1.153000000     0.136000000    -5.287000000
C    -0.298000000     2.637000000    -3.546000000
H    -1.066000000     2.885000000    -2.818000000
O    -2.629000000     0.695000000    -4.198000000
H    -1.159000000    -0.061000000    -2.860000000
C    -2.118000000    -2.531000000    -3.577000000
C    -3.508000000    -1.977000000    -3.895000000
H    -4.263000000    -2.761000000    -3.810000000
H    -3.365000000    -1.723000000    -4.947000000
C    -3.920000000    -0.821000000    -3.038000000
C    -3.522000000     0.516000000    -3.212000000
C    -3.743000000     1.516000000    -2.260000000
H    -3.288000000     2.484000000    -2.453000000
C    -4.452000000     1.230000000    -1.105000000
O    -4.571000000     2.151000000    -0.119000000
C    -3.584000000     2.148000000     0.926000000
H    -2.667000000     1.628000000     0.612000000
C    -3.153000000     3.630000000     1.265000000
C    -2.444000000     3.922000000     2.473000000
H    -2.166000000     3.076000000     3.096000000
C    -3.160000000     4.681000000     0.320000000
H    -3.577000000     4.516000000    -0.670000000
C    -2.626000000     5.987000000     0.637000000
O    -2.566000000     6.877000000    -0.390000000
C    -2.142000000     6.231000000     1.921000000
H    -1.789000000     7.235000000     2.143000000
C    -2.046000000     5.225000000     2.822000000
O    -1.349000000     5.496000000     4.008000000
C    -1.135000000     4.599000000     4.984000000
C    -0.007000000     3.800000000     5.062000000
H     0.719000000     3.746000000     4.255000000
C    -2.039000000     4.626000000     6.029000000
H    -2.881000000     5.314000000     6.009000000
C    -1.902000000     3.739000000     7.113000000
H    -2.593000000     3.735000000     7.952000000
C    -0.765000000     2.916000000     7.210000000
H    -0.550000000     2.296000000     8.076000000
C     0.218000000     2.959000000     6.131000000
O     1.396000000     2.240000000     6.167000000
C     1.646000000     0.933000000     5.743000000
C     2.871000000     0.346000000     5.974000000
H     3.648000000     0.913000000     6.481000000
C     3.103000000    -0.938000000     5.434000000
O     4.342000000    -1.525000000     5.598000000
C     5.033000000    -2.176000000     4.551000000
C     5.360000000    -1.557000000     3.329000000
H     5.107000000    -0.501000000     3.356000000
C     5.285000000    -3.547000000     4.690000000
H     4.957000000    -4.064000000     5.588000000
C     5.838000000    -4.265000000     3.666000000
H     6.178000000    -5.284000000     3.835000000
C     6.098000000    -3.659000000     2.402000000
H     6.519000000    -4.225000000     1.576000000
C     5.845000000    -2.291000000     2.202000000
O     6.227000000    -1.702000000     1.027000000
C     5.434000000    -1.900000000    -0.085000000
C     5.942000000    -1.454000000    -1.306000000
H     6.927000000    -0.995000000    -1.315000000
C     5.248000000    -1.616000000    -2.504000000
O     5.792000000    -1.267000000    -3.765000000
C     4.933000000    -0.851000000    -4.797000000
C     4.167000000     0.247000000    -4.772000000
H     4.107000000     0.804000000    -3.841000000
C     5.151000000    -1.587000000    -5.928000000
H     5.688000000    -2.532000000    -5.907000000
C     4.443000000    -1.222000000    -7.056000000
H     4.365000000    -1.980000000    -7.831000000
C     3.560000000    -0.141000000    -7.000000000
H     2.947000000     0.159000000    -7.846000000
C     3.597000000     0.700000000    -5.941000000
O     2.993000000     1.840000000    -5.968000000
C     1.901000000     2.109000000    -5.160000000
C     1.735000000     3.378000000    -4.628000000
H     2.376000000     4.200000000    -4.933000000
C     0.641000000     3.602000000    -3.796000000
O     0.456000000     4.916000000    -3.379000000
C    -0.843000000     5.342000000    -3.131000000
C    -1.868000000     5.170000000    -4.075000000
H    -1.655000000     4.582000000    -4.964000000
C    -3.144000000     5.726000000    -3.847000000
H    -3.979000000     5.677000000    -4.542000000
C    -3.432000000     6.339000000    -2.682000000
H    -4.391000000     6.787000000    -2.434000000
C    -2.364000000     6.434000000    -1.676000000
C    -1.101000000     5.960000000    -1.894000000
H    -0.358000000     5.990000000    -1.101000000
C     2.359000000     1.982000000    -1.202000000
H     3.083000000     1.952000000    -2.012000000
C     1.550000000     0.850000000    -0.860000000
H     1.904000000    -0.056000000    -1.345000000
C     0.548000000     0.954000000     0.013000000
C    -0.350000000    -0.242000000     0.321000000
H    -0.707000000    -0.111000000     1.344000000
H    -1.160000000    -0.451000000    -0.381000000
H     0.173000000    -1.200000000     0.345000000
C     0.310000000     2.139000000     0.668000000
H    -0.523000000     2.147000000     1.367000000
C     1.127000000     3.242000000     0.401000000
H     0.887000000     4.156000000     0.939000000
C     2.110000000     3.238000000    -0.582000000
C     3.002000000     4.446000000    -0.803000000
O     3.128000000     5.311000000     0.026000000
O     3.674000000     4.419000000    -1.804000000
O     3.763000000     6.508000000     3.774000000
H     4.322000000     6.234000000     3.046000000
H     3.487000000     5.690000000     4.185000000
O     1.313000000     7.923000000    -4.488000000
H     0.628000000     7.671000000    -5.107000000
H     1.161000000     8.854000000    -4.327000000
O     1.393000000     6.585000000     1.745000000
H     1.797000000     6.375000000     2.587000000
H     1.892000000     6.074000000     1.107000000
O     6.069000000     1.669000000     1.247000000
H     5.162000000     1.450000000     1.460000000
H     6.217000000     2.514000000     1.671000000
O     3.400000000     7.323000000    -3.125000000
H     2.553000000     7.403000000    -3.565000000
H     3.351000000     6.486000000    -2.663000000
O     1.488000000    10.350000000    -2.258000000
H     1.227000000    10.532000000    -1.355000000
H     2.312000000     9.870000000    -2.176000000
O     5.246000000     6.012000000     1.379000000
H     4.565000000     5.774000000     0.749000000
H     5.716000000     6.734000000     0.963000000
O     6.678000000     5.608000000    -1.794000000
H     7.300000000     5.001000000    -1.393000000
H     5.841000000     5.144000000    -1.771000000
O     7.307000000     4.173000000     2.577000000
H     6.888000000     5.033000000     2.613000000
H     7.699000000     4.134000000     1.705000000
O     0.978000000     9.267000000     2.330000000
H     1.048000000     8.390000000     1.953000000
H     1.662000000     9.295000000     3.000000000
O     5.211000000     4.231000000    -3.774000000
H     4.549000000     4.393000000    -3.102000000
H     5.708000000     3.482000000    -3.445000000
O     4.252000000    10.218000000     0.816000000
H     3.769000000     9.552000000     0.326000000
H     4.132000000    11.022000000     0.310000000
O     6.673000000     7.769000000     0.145000000
H     6.218000000     8.610000000     0.102000000
H     6.673000000     7.450000000    -0.757000000
O     6.254000000     7.014000000    -4.403000000
H     5.335000000     7.258000000    -4.512000000
H     6.234000000     6.271000000    -3.800000000
O     6.081000000     2.474000000    -1.659000000
H     5.769000000     2.400000000    -0.757000000
H     6.638000000     1.706000000    -1.784000000
O     3.390000000     9.167000000     3.307000000
H     3.581000000     8.230000000     3.297000000
H     3.771000000     9.499000000     2.494000000
O     3.379000000     8.005000000    -0.443000000
H     3.352000000     7.136000000    -0.043000000
H     3.109000000     7.859000000    -1.350000000
O     3.679000000     0.678000000     1.132000000
H     3.035000000     0.783000000     1.832000000
H     3.216000000     0.947000000     0.339000000
O     5.093000000     4.124000000    -6.664000000
H     4.816000000     4.018000000    -5.754000000
H     5.966000000     3.732000000    -6.695000000
