218
-1476.98956
C     2.778000000    -0.032000000     4.545000000
H     3.245000000    -0.943000000     4.178000000
C     1.379000000     0.001000000     4.717000000
C     0.785000000     1.057000000     5.387000000
H    -0.272000000     1.200000000     5.597000000
C     0.526000000    -1.029000000     4.122000000
O     1.140000000    -2.191000000     3.872000000
H     0.260000000    -0.662000000     3.120000000
O    -0.715000000    -1.208000000     4.814000000
C    -1.889000000    -1.389000000     4.044000000
C    -2.605000000    -0.248000000     3.774000000
H    -2.409000000     0.686000000     4.296000000
C    -3.761000000    -0.364000000     3.025000000
O    -4.295000000     0.840000000     2.565000000
C    -4.093000000    -1.585000000     2.345000000
C    -5.180000000    -1.530000000     1.295000000
H    -5.683000000    -2.495000000     1.378000000
C    -4.639000000    -1.260000000    -0.109000000
C    -4.242000000    -2.342000000    -0.885000000
H    -4.175000000    -3.340000000    -0.460000000
H    -5.942000000    -0.775000000     1.499000000
C    -3.264000000    -2.703000000     2.556000000
H    -3.415000000    -3.581000000     1.933000000
C    -2.168000000    -2.650000000     3.410000000
C    -1.397000000    -3.909000000     3.651000000
H    -2.037000000    -4.784000000     3.517000000
H    -1.050000000    -3.841000000     4.684000000
C    -0.208000000    -3.863000000     2.723000000
C    -0.297000000    -4.678000000     1.583000000
H    -1.108000000    -5.374000000     1.383000000
C     0.942000000    -3.019000000     2.820000000
C     2.033000000    -3.193000000     2.005000000
H     2.985000000    -2.722000000     2.235000000
C     1.901000000    -4.010000000     0.893000000
O     2.875000000    -4.002000000    -0.031000000
C     2.676000000    -3.072000000    -1.123000000
C     3.935000000    -2.274000000    -1.394000000
C     4.304000000    -1.937000000    -2.682000000
H     3.847000000    -2.463000000    -3.516000000
C     4.592000000    -1.605000000    -0.342000000
H     4.325000000    -1.829000000     0.687000000
O     2.233000000    -3.799000000    -2.297000000
H     1.959000000    -2.287000000    -0.843000000
C     0.753000000    -4.757000000     0.662000000
C     0.549000000    -5.519000000    -0.659000000
H    -0.038000000    -6.423000000    -0.487000000
H     1.529000000    -5.909000000    -0.943000000
C    -0.007000000    -4.607000000    -1.727000000
C    -1.387000000    -4.470000000    -1.980000000
H    -2.109000000    -4.934000000    -1.313000000
C     0.913000000    -3.885000000    -2.532000000
C     0.436000000    -2.928000000    -3.485000000
H     1.087000000    -2.449000000    -4.213000000
C    -0.940000000    -2.859000000    -3.713000000
O    -1.395000000    -1.911000000    -4.619000000
C    -1.748000000    -0.712000000    -3.902000000
C    -1.175000000     0.524000000    -4.670000000
C     0.083000000     0.435000000    -5.287000000
H     0.599000000    -0.512000000    -5.155000000
C    -1.773000000     1.739000000    -4.616000000
H    -2.719000000     1.865000000    -4.095000000
O    -3.168000000    -0.565000000    -3.931000000
H    -1.301000000    -0.756000000    -2.898000000
C    -1.833000000    -3.551000000    -2.943000000
C    -3.384000000    -3.313000000    -3.063000000
H    -3.933000000    -4.194000000    -2.722000000
H    -3.647000000    -3.267000000    -4.122000000
C    -3.765000000    -2.145000000    -2.208000000
C    -3.807000000    -0.880000000    -2.754000000
C    -4.080000000     0.225000000    -1.940000000
H    -3.916000000     1.208000000    -2.372000000
C    -4.519000000     0.045000000    -0.633000000
O    -4.761000000     1.112000000     0.244000000
C    -3.784000000     1.336000000     1.292000000
H    -2.861000000     0.860000000     0.928000000
C    -3.372000000     2.762000000     1.301000000
C    -3.048000000     3.361000000     2.606000000
H    -3.174000000     2.789000000     3.522000000
C    -3.239000000     3.487000000     0.126000000
H    -3.521000000     3.112000000    -0.855000000
C    -2.764000000     4.782000000     0.185000000
O    -2.503000000     5.532000000    -0.992000000
C    -2.400000000     5.332000000     1.323000000
H    -2.097000000     6.375000000     1.287000000
C    -2.515000000     4.638000000     2.544000000
O    -2.161000000     5.240000000     3.764000000
C    -1.807000000     4.555000000     4.931000000
C    -0.492000000     4.087000000     5.052000000
H     0.263000000     4.230000000     4.283000000
C    -2.703000000     4.402000000     5.906000000
H    -3.736000000     4.734000000     5.837000000
C    -2.351000000     3.864000000     7.159000000
H    -3.195000000     3.802000000     7.841000000
C    -1.024000000     3.436000000     7.331000000
H    -0.639000000     2.975000000     8.237000000
C    -0.120000000     3.569000000     6.285000000
O     1.163000000     3.184000000     6.547000000
C     1.635000000     2.129000000     5.814000000
C     2.989000000     2.052000000     5.674000000
H     3.569000000     2.782000000     6.233000000
C     3.583000000     1.031000000     4.995000000
O     4.958000000     0.920000000     5.029000000
C     5.771000000     0.282000000     4.138000000
C     5.576000000     0.555000000     2.786000000
H     4.819000000     1.292000000     2.531000000
C     6.644000000    -0.745000000     4.465000000
H     6.889000000    -0.914000000     5.510000000
C     7.365000000    -1.500000000     3.509000000
H     8.044000000    -2.316000000     3.745000000
C     7.131000000    -1.259000000     2.136000000
H     7.559000000    -1.915000000     1.383000000
C     6.279000000    -0.239000000     1.809000000
O     6.076000000     0.138000000     0.443000000
C     5.626000000    -0.648000000    -0.558000000
C     5.915000000    -0.322000000    -1.882000000
H     6.433000000     0.591000000    -2.165000000
C     5.249000000    -0.935000000    -2.928000000
O     5.524000000    -0.391000000    -4.196000000
C     4.628000000    -0.403000000    -5.254000000
C     3.551000000     0.405000000    -5.357000000
H     3.316000000     1.079000000    -4.538000000
C     4.902000000    -1.263000000    -6.283000000
H     5.635000000    -2.057000000    -6.174000000
C     4.119000000    -1.346000000    -7.415000000
H     4.306000000    -2.082000000    -8.193000000
C     3.038000000    -0.560000000    -7.510000000
H     2.372000000    -0.589000000    -8.368000000
C     2.751000000     0.379000000    -6.517000000
O     1.739000000     1.368000000    -6.788000000
C     0.648000000     1.433000000    -6.020000000
C    -0.078000000     2.643000000    -6.092000000
H     0.298000000     3.472000000    -6.685000000
C    -1.257000000     2.809000000    -5.322000000
O    -2.004000000     3.909000000    -5.579000000
C    -2.775000000     4.468000000    -4.539000000
C    -4.135000000     4.837000000    -4.804000000
H    -4.598000000     4.691000000    -5.776000000
C    -4.852000000     5.321000000    -3.800000000
H    -5.853000000     5.663000000    -4.051000000
C    -4.280000000     5.590000000    -2.543000000
H    -4.882000000     6.045000000    -1.761000000
C    -3.009000000     5.149000000    -2.222000000
C    -2.268000000     4.522000000    -3.271000000
H    -1.338000000     4.038000000    -2.985000000
C     1.397000000     1.751000000    -1.973000000
H     2.077000000     1.946000000    -2.798000000
C     0.900000000     0.483000000    -1.699000000
H     1.115000000    -0.392000000    -2.308000000
C     0.153000000     0.255000000    -0.607000000
C    -0.384000000    -1.075000000    -0.275000000
H    -0.382000000    -1.780000000    -1.109000000
H     0.029000000    -1.462000000     0.660000000
H    -1.457000000    -0.979000000    -0.099000000
C    -0.103000000     1.262000000     0.301000000
H    -0.747000000     1.081000000     1.158000000
C     0.329000000     2.595000000     0.108000000
H     0.005000000     3.365000000     0.803000000
C     1.104000000     2.799000000    -1.042000000
C     1.552000000     4.197000000    -1.420000000
O     1.095000000     5.179000000    -0.822000000
O     2.255000000     4.286000000    -2.384000000
O     4.548000000    10.098000000    -1.639000000
H     5.117000000    10.712000000    -1.176000000
H     4.609000000     9.287000000    -1.134000000
O     1.983000000     5.162000000    -7.690000000
H     2.770000000     5.666000000    -7.898000000
H     2.003000000     5.070000000    -6.737000000
O     5.895000000     5.688000000    -3.979000000
H     5.539000000     6.353000000    -3.389000000
H     6.837000000     5.697000000    -3.809000000
O     0.179000000     9.487000000    -2.986000000
H    -0.034000000     8.613000000    -2.659000000
H     0.719000000     9.329000000    -3.760000000
O     5.982000000     5.020000000     2.727000000
H     6.236000000     5.626000000     2.031000000
H     5.263000000     4.512000000     2.352000000
O     3.547000000     6.377000000     0.287000000
H     2.615000000     6.256000000     0.103000000
H     3.718000000     5.812000000     1.040000000
O     1.684000000     5.138000000    -4.708000000
H     1.724000000     4.829000000    -3.803000000
H     0.971000000     5.777000000    -4.712000000
O    -0.605000000     7.407000000    -1.657000000
H    -1.395000000     6.877000000    -1.545000000
H     0.115000000     6.804000000    -1.471000000
O     2.500000000     9.260000000    -4.578000000
H     2.110000000     8.645000000    -5.200000000
H     2.793000000     8.711000000    -3.850000000
O     3.336000000     4.376000000     2.156000000
H     3.258000000     3.652000000     1.534000000
H     2.433000000     4.579000000     2.400000000
O    -0.416000000     7.052000000    -5.007000000
H    -1.109000000     7.172000000    -4.358000000
H    -0.834000000     7.254000000    -5.844000000
O     4.909000000     3.537000000    -2.084000000
H     5.356000000     3.493000000    -2.929000000
H     4.001000000     3.744000000    -2.303000000
O     2.391000000     9.779000000     2.151000000
H     1.510000000     9.430000000     2.023000000
H     2.522000000     9.759000000     3.100000000
O     4.689000000     9.058000000     0.898000000
H     4.552000000     8.111000000     0.887000000
H     4.079000000     9.380000000     1.562000000
O     7.133000000     4.303000000     0.049000000
H     6.393000000     4.013000000    -0.484000000
H     7.726000000     4.725000000    -0.573000000
O     4.202000000     4.486000000    -5.913000000
H     4.842000000     4.924000000    -5.352000000
H     3.356000000     4.695000000    -5.519000000
O     4.284000000     2.416000000     0.274000000
H     4.548000000     1.497000000     0.293000000
H     4.504000000     2.710000000    -0.610000000
O     3.555000000     7.046000000    -2.444000000
H     3.612000000     7.066000000    -1.488000000
H     3.272000000     6.155000000    -2.648000000
O     0.954000000     5.756000000     1.700000000
H     0.151000000     6.118000000     2.076000000
H     0.785000000     5.725000000     0.758000000
