218
-1470.04050
C     2.921000000    -0.857000000     4.374000000
H     3.357000000    -1.727000000     3.891000000
C     1.517000000    -0.858000000     4.537000000
C     0.958000000     0.146000000     5.337000000
H    -0.107000000     0.087000000     5.548000000
C     0.676000000    -1.902000000     3.907000000
O     1.357000000    -3.190000000     3.669000000
H     0.469000000    -1.488000000     2.909000000
O    -0.547000000    -2.035000000     4.619000000
C    -1.709000000    -2.161000000     3.883000000
C    -2.546000000    -1.041000000     3.810000000
H    -2.376000000    -0.149000000     4.408000000
C    -3.669000000    -1.103000000     2.913000000
O    -4.456000000     0.047000000     2.791000000
C    -3.882000000    -2.160000000     2.091000000
C    -5.040000000    -2.107000000     1.093000000
H    -5.424000000    -3.124000000     0.994000000
C    -4.480000000    -1.523000000    -0.243000000
C    -4.109000000    -2.395000000    -1.288000000
H    -4.211000000    -3.463000000    -1.109000000
H    -5.898000000    -1.554000000     1.483000000
C    -3.076000000    -3.249000000     2.192000000
H    -3.286000000    -4.022000000     1.457000000
C    -1.950000000    -3.264000000     3.043000000
C    -1.080000000    -4.470000000     3.106000000
H    -1.742000000    -5.328000000     2.974000000
H    -0.625000000    -4.594000000     4.091000000
C     0.046000000    -4.461000000     2.090000000
C    -0.079000000    -5.025000000     0.848000000
H    -0.976000000    -5.551000000     0.531000000
C     1.245000000    -3.814000000     2.421000000
C     2.306000000    -3.671000000     1.517000000
H     3.233000000    -3.158000000     1.761000000
C     2.128000000    -4.183000000     0.202000000
O     3.123000000    -3.884000000    -0.743000000
C     2.905000000    -2.757000000    -1.598000000
C     4.090000000    -1.845000000    -1.676000000
C     4.281000000    -1.041000000    -2.815000000
H     3.571000000    -1.064000000    -3.638000000
C     5.048000000    -1.729000000    -0.664000000
H     4.979000000    -2.493000000     0.106000000
O     2.423000000    -3.266000000    -2.851000000
H     2.077000000    -2.108000000    -1.278000000
C     0.919000000    -4.794000000    -0.159000000
C     0.767000000    -5.319000000    -1.555000000
H     0.070000000    -6.158000000    -1.501000000
H     1.713000000    -5.741000000    -1.901000000
C     0.211000000    -4.252000000    -2.527000000
C    -1.188000000    -4.171000000    -2.717000000
H    -1.928000000    -4.782000000    -2.208000000
C     1.115000000    -3.302000000    -3.105000000
C     0.650000000    -2.263000000    -3.870000000
H     1.374000000    -1.524000000    -4.205000000
C    -0.713000000    -2.042000000    -3.933000000
O    -1.241000000    -0.961000000    -4.585000000
C    -1.642000000     0.054000000    -3.739000000
C    -1.095000000     1.419000000    -4.220000000
C     0.011000000     1.518000000    -5.033000000
H     0.557000000     0.616000000    -5.294000000
C    -1.769000000     2.563000000    -3.853000000
H    -2.758000000     2.511000000    -3.404000000
O    -3.092000000     0.119000000    -3.831000000
H    -1.291000000    -0.178000000    -2.723000000
C    -1.661000000    -3.011000000    -3.395000000
C    -3.189000000    -2.802000000    -3.576000000
H    -3.723000000    -3.749000000    -3.467000000
H    -3.367000000    -2.406000000    -4.578000000
C    -3.662000000    -1.837000000    -2.466000000
C    -3.676000000    -0.496000000    -2.689000000
C    -4.164000000     0.305000000    -1.698000000
H    -4.218000000     1.386000000    -1.802000000
C    -4.568000000    -0.181000000    -0.491000000
O    -5.099000000     0.608000000     0.434000000
C    -4.147000000     0.910000000     1.572000000
H    -3.183000000     0.577000000     1.159000000
C    -4.081000000     2.376000000     1.818000000
C    -3.145000000     2.779000000     2.701000000
H    -2.730000000     2.043000000     3.384000000
C    -4.643000000     3.320000000     0.958000000
H    -5.435000000     2.993000000     0.289000000
C    -4.099000000     4.590000000     0.915000000
O    -4.510000000     5.512000000    -0.010000000
C    -3.054000000     4.995000000     1.756000000
H    -2.525000000     5.944000000     1.711000000
C    -2.729000000     4.101000000     2.788000000
O    -1.799000000     4.486000000     3.794000000
C    -1.607000000     3.755000000     4.975000000
C    -0.322000000     3.427000000     5.326000000
H     0.510000000     3.659000000     4.665000000
C    -2.721000000     3.631000000     5.865000000
H    -3.713000000     3.959000000     5.564000000
C    -2.393000000     3.051000000     7.073000000
H    -3.199000000     2.748000000     7.737000000
C    -1.114000000     2.543000000     7.341000000
H    -1.019000000     1.856000000     8.178000000
C    -0.094000000     2.614000000     6.414000000
O     1.107000000     2.102000000     6.645000000
C     1.703000000     1.200000000     5.870000000
C     3.089000000     1.201000000     5.632000000
H     3.775000000     1.984000000     5.947000000
C     3.716000000     0.126000000     4.965000000
O     5.067000000     0.130000000     4.811000000
C     5.845000000    -0.562000000     3.918000000
C     5.684000000    -0.308000000     2.575000000
H     4.974000000     0.474000000     2.319000000
C     6.867000000    -1.420000000     4.352000000
H     6.927000000    -1.740000000     5.389000000
C     7.890000000    -1.822000000     3.440000000
H     8.762000000    -2.394000000     3.747000000
C     7.736000000    -1.501000000     2.085000000
H     8.538000000    -1.606000000     1.357000000
C     6.625000000    -0.789000000     1.675000000
O     6.731000000    -0.280000000     0.406000000
C     5.915000000    -0.614000000    -0.651000000
C     6.058000000     0.231000000    -1.780000000
H     6.787000000     1.036000000    -1.831000000
C     5.271000000    -0.038000000    -2.840000000
O     5.441000000     0.865000000    -3.887000000
C     4.542000000     0.927000000    -4.947000000
C     3.437000000     1.797000000    -4.967000000
H     3.205000000     2.333000000    -4.050000000
C     4.948000000     0.498000000    -6.138000000
H     5.839000000    -0.109000000    -6.279000000
C     4.184000000     0.572000000    -7.272000000
H     4.421000000     0.023000000    -8.180000000
C     3.109000000     1.422000000    -7.352000000
H     2.454000000     1.424000000    -8.220000000
C     2.724000000     2.032000000    -6.180000000
O     1.671000000     2.899000000    -6.180000000
C     0.537000000     2.755000000    -5.447000000
C    -0.120000000     3.866000000    -5.096000000
H     0.283000000     4.844000000    -5.346000000
C    -1.254000000     3.775000000    -4.270000000
O    -1.845000000     4.973000000    -3.952000000
C    -3.085000000     4.962000000    -3.384000000
C    -4.261000000     4.734000000    -4.083000000
H    -4.148000000     4.652000000    -5.161000000
C    -5.551000000     4.909000000    -3.473000000
H    -6.493000000     4.803000000    -4.005000000
C    -5.611000000     5.117000000    -2.110000000
H    -6.593000000     5.224000000    -1.656000000
C    -4.463000000     5.338000000    -1.394000000
C    -3.204000000     5.239000000    -2.047000000
H    -2.289000000     5.254000000    -1.460000000
C    -0.823000000     2.750000000     0.156000000
H    -1.582000000     3.399000000    -0.273000000
C    -0.926000000     1.390000000    -0.040000000
H    -1.760000000     0.966000000    -0.594000000
C     0.029000000     0.527000000     0.363000000
C    -0.059000000    -0.932000000     0.002000000
H     0.933000000    -1.376000000     0.104000000
H    -0.790000000    -1.474000000     0.607000000
H    -0.362000000    -1.077000000    -1.037000000
C     1.114000000     1.064000000     1.103000000
H     1.838000000     0.463000000     1.649000000
C     1.193000000     2.434000000     1.376000000
H     1.969000000     2.698000000     2.090000000
C     0.261000000     3.282000000     0.838000000
C     0.362000000     4.806000000     1.042000000
O     1.122000000     5.220000000     1.923000000
O    -0.210000000     5.652000000     0.351000000
O     1.859000000     4.383000000    -2.933000000
H     1.475000000     3.507000000    -2.900000000
H     1.164000000     4.962000000    -2.619000000
O    -0.295000000    10.861000000    -1.095000000
H     0.058000000    10.839000000    -1.985000000
H    -0.066000000    10.008000000    -0.726000000
O     5.759000000     2.954000000     1.152000000
H     6.602000000     2.842000000     0.712000000
H     5.145000000     3.156000000     0.446000000
O     5.280000000     4.115000000     3.925000000
H     4.332000000     4.242000000     3.901000000
H     5.513000000     3.877000000     3.027000000
O     4.591000000     6.869000000     3.164000000
H     5.257000000     6.192000000     3.281000000
H     4.119000000     6.888000000     3.997000000
O    -3.474000000     8.196000000    -1.704000000
H    -2.952000000     8.620000000    -2.386000000
H    -4.107000000     7.662000000    -2.184000000
O    -1.102000000     8.061000000     5.331000000
H    -1.629000000     7.277000000     5.181000000
H    -0.565000000     8.143000000     4.542000000
O    -1.299000000     7.932000000     0.528000000
H    -0.955000000     7.069000000     0.295000000
H    -2.235000000     7.876000000     0.335000000
O     3.096000000     6.624000000     0.871000000
H     3.693000000     6.741000000     1.609000000
H     2.360000000     6.130000000     1.233000000
O     2.702000000     4.625000000     3.928000000
H     2.245000000     5.112000000     4.614000000
H     2.200000000     4.802000000     3.133000000
O     3.995000000     9.363000000     1.594000000
H     4.078000000     8.410000000     1.618000000
H     3.191000000     9.546000000     2.080000000
O     0.173000000     6.219000000    -2.252000000
H    -0.494000000     6.809000000    -2.600000000
H    -0.041000000     6.136000000    -1.323000000
O     1.891000000     6.112000000     6.192000000
H     2.312000000     6.966000000     6.290000000
H     1.065000000     6.195000000     6.670000000
O    -2.135000000    10.185000000     1.743000000
H    -1.632000000     9.653000000     1.126000000
H    -2.814000000     9.595000000     2.069000000
O     5.456000000     5.304000000    -0.605000000
H     4.910000000     4.692000000    -1.099000000
H     4.984000000     5.436000000     0.217000000
O     2.313000000     7.807000000    -1.448000000
H     1.725000000     7.148000000    -1.816000000
H     2.593000000     7.437000000    -0.611000000
O     3.749000000     3.361000000    -0.844000000
H     3.252000000     2.674000000    -0.400000000
H     3.135000000     3.727000000    -1.481000000
O     2.201000000     9.249000000     3.871000000
H     2.193000000     9.321000000     4.825000000
H     1.629000000     8.505000000     3.683000000
O     0.230000000     7.628000000     2.878000000
H    -0.437000000     7.863000000     2.233000000
H     0.529000000     6.759000000     2.609000000
