218
-1462.01563
C     2.926000000    -0.186000000     4.457000000
H     3.496000000    -0.825000000     3.788000000
C     1.550000000    -0.325000000     4.532000000
C     0.809000000     0.535000000     5.380000000
H    -0.267000000     0.522000000     5.528000000
C     0.817000000    -1.502000000     3.845000000
O     1.662000000    -2.694000000     3.711000000
H     0.546000000    -1.233000000     2.814000000
O    -0.386000000    -1.993000000     4.476000000
C    -1.560000000    -2.303000000     3.783000000
C    -2.466000000    -1.296000000     3.646000000
H    -2.273000000    -0.308000000     4.058000000
C    -3.507000000    -1.401000000     2.721000000
O    -4.152000000    -0.198000000     2.656000000
C    -3.731000000    -2.585000000     2.033000000
C    -4.847000000    -2.846000000     1.101000000
H    -5.029000000    -3.923000000     1.086000000
C    -4.538000000    -2.207000000    -0.254000000
C    -3.851000000    -2.982000000    -1.143000000
H    -3.839000000    -4.047000000    -0.924000000
H    -5.795000000    -2.476000000     1.497000000
C    -2.825000000    -3.579000000     2.172000000
H    -2.957000000    -4.560000000     1.723000000
C    -1.660000000    -3.492000000     2.991000000
C    -0.608000000    -4.565000000     3.170000000
H    -0.985000000    -5.542000000     2.858000000
H    -0.312000000    -4.614000000     4.220000000
C     0.616000000    -4.307000000     2.240000000
C     0.637000000    -4.958000000     1.021000000
H    -0.255000000    -5.516000000     0.749000000
C     1.611000000    -3.435000000     2.542000000
C     2.707000000    -3.244000000     1.729000000
H     3.417000000    -2.501000000     2.085000000
C     2.722000000    -3.828000000     0.449000000
O     3.621000000    -3.415000000    -0.424000000
C     3.230000000    -2.429000000    -1.393000000
C     4.304000000    -1.393000000    -1.586000000
C     4.653000000    -0.890000000    -2.848000000
H     3.994000000    -1.173000000    -3.665000000
C     4.941000000    -0.862000000    -0.474000000
H     4.713000000    -1.284000000     0.502000000
O     2.877000000    -3.065000000    -2.624000000
H     2.399000000    -1.871000000    -0.936000000
C     1.652000000    -4.661000000     0.077000000
C     1.616000000    -5.231000000    -1.299000000
H     1.131000000    -6.206000000    -1.215000000
H     2.671000000    -5.347000000    -1.554000000
C     0.906000000    -4.302000000    -2.270000000
C    -0.475000000    -4.374000000    -2.502000000
H    -1.068000000    -5.204000000    -2.124000000
C     1.575000000    -3.269000000    -2.899000000
C     0.978000000    -2.360000000    -3.717000000
H     1.507000000    -1.499000000    -4.117000000
C    -0.395000000    -2.372000000    -3.874000000
O    -0.892000000    -1.310000000    -4.521000000
C    -1.538000000    -0.278000000    -3.750000000
C    -1.198000000     1.104000000    -4.345000000
C     0.139000000     1.467000000    -4.637000000
H     0.842000000     0.642000000    -4.550000000
C    -2.138000000     2.117000000    -4.390000000
H    -3.119000000     1.762000000    -4.084000000
O    -2.955000000    -0.473000000    -3.831000000
H    -1.192000000    -0.201000000    -2.709000000
C    -1.169000000    -3.361000000    -3.238000000
C    -2.691000000    -3.386000000    -3.379000000
H    -2.980000000    -4.437000000    -3.305000000
H    -2.924000000    -3.097000000    -4.406000000
C    -3.389000000    -2.507000000    -2.410000000
C    -3.532000000    -1.165000000    -2.704000000
C    -4.287000000    -0.358000000    -1.785000000
H    -4.439000000     0.676000000    -2.084000000
C    -4.746000000    -0.842000000    -0.546000000
O    -5.060000000     0.054000000     0.505000000
C    -4.061000000     0.486000000     1.432000000
H    -3.115000000     0.083000000     1.040000000
C    -3.876000000     2.040000000     1.536000000
C    -3.279000000     2.579000000     2.651000000
H    -2.906000000     1.996000000     3.489000000
C    -4.283000000     2.854000000     0.495000000
H    -4.792000000     2.475000000    -0.387000000
C    -4.084000000     4.206000000     0.570000000
O    -4.599000000     5.050000000    -0.396000000
C    -3.480000000     4.740000000     1.675000000
H    -3.311000000     5.803000000     1.830000000
C    -3.116000000     3.953000000     2.733000000
O    -2.552000000     4.541000000     3.822000000
C    -2.220000000     3.890000000     5.068000000
C    -0.855000000     3.704000000     5.453000000
H    -0.065000000     4.236000000     4.928000000
C    -3.237000000     3.346000000     5.818000000
H    -4.266000000     3.398000000     5.469000000
C    -2.931000000     2.418000000     6.792000000
H    -3.721000000     1.858000000     7.286000000
C    -1.631000000     2.159000000     7.178000000
H    -1.414000000     1.444000000     7.967000000
C    -0.581000000     2.786000000     6.468000000
O     0.726000000     2.456000000     6.788000000
C     1.472000000     1.625000000     5.948000000
C     2.820000000     1.932000000     5.689000000
H     3.291000000     2.812000000     6.120000000
C     3.545000000     0.970000000     4.966000000
O     4.906000000     1.258000000     4.709000000
C     5.639000000     0.552000000     3.830000000
C     5.722000000     0.979000000     2.513000000
H     5.198000000     1.882000000     2.208000000
C     6.373000000    -0.522000000     4.306000000
H     6.291000000    -0.652000000     5.382000000
C     7.338000000    -1.139000000     3.508000000
H     7.975000000    -1.939000000     3.877000000
C     7.262000000    -0.792000000     2.108000000
H     7.875000000    -1.333000000     1.391000000
C     6.595000000     0.355000000     1.649000000
O     6.683000000     0.671000000     0.268000000
C     5.945000000     0.061000000    -0.681000000
C     6.317000000     0.528000000    -1.973000000
H     7.109000000     1.250000000    -2.153000000
C     5.631000000     0.035000000    -3.044000000
O     5.864000000     0.548000000    -4.304000000
C     4.817000000     0.964000000    -5.131000000
C     3.856000000     1.896000000    -4.902000000
H     4.007000000     2.495000000    -4.007000000
C     4.646000000     0.105000000    -6.220000000
H     5.376000000    -0.690000000    -6.345000000
C     3.533000000     0.211000000    -7.050000000
H     3.404000000    -0.595000000    -7.768000000
C     2.585000000     1.161000000    -6.776000000
H     1.688000000     1.372000000    -7.353000000
C     2.792000000     2.070000000    -5.725000000
O     1.857000000     2.990000000    -5.341000000
C     0.506000000     2.730000000    -5.073000000
C    -0.453000000     3.724000000    -5.122000000
H    -0.208000000     4.732000000    -5.446000000
C    -1.805000000     3.438000000    -4.742000000
O    -2.747000000     4.419000000    -4.749000000
C    -3.819000000     4.626000000    -3.944000000
C    -5.017000000     5.067000000    -4.514000000
H    -5.164000000     5.175000000    -5.585000000
C    -6.130000000     5.386000000    -3.632000000
H    -7.060000000     5.737000000    -4.071000000
C    -5.972000000     5.246000000    -2.244000000
H    -6.813000000     5.487000000    -1.599000000
C    -4.797000000     4.871000000    -1.730000000
C    -3.733000000     4.634000000    -2.590000000
H    -2.842000000     4.357000000    -2.032000000
C    -0.499000000     2.533000000     0.327000000
H    -1.111000000     3.406000000     0.113000000
C    -0.876000000     1.229000000    -0.084000000
H    -1.765000000     0.928000000    -0.632000000
C    -0.016000000     0.217000000     0.222000000
C    -0.490000000    -1.211000000    -0.218000000
H     0.187000000    -1.565000000    -0.998000000
H    -0.437000000    -1.980000000     0.556000000
H    -1.517000000    -1.231000000    -0.590000000
C     1.193000000     0.407000000     0.908000000
H     1.866000000    -0.432000000     1.065000000
C     1.591000000     1.719000000     1.223000000
H     2.539000000     1.786000000     1.751000000
C     0.703000000     2.771000000     1.040000000
C     1.124000000     4.168000000     1.276000000
O     2.314000000     4.357000000     1.143000000
O     0.286000000     5.030000000     1.271000000
O     3.636000000     2.546000000    -1.179000000
H     3.466000000     3.377000000    -0.735000000
H     4.560000000     2.367000000    -1.006000000
O     1.269000000     9.258000000    -1.727000000
H     1.962000000     9.876000000    -1.962000000
H     1.362000000     8.543000000    -2.357000000
O     6.509000000     4.212000000    -0.991000000
H     6.137000000     3.974000000    -1.841000000
H     5.776000000     4.595000000    -0.508000000
O     6.238000000     5.402000000     2.362000000
H     5.350000000     5.197000000     2.653000000
H     6.715000000     4.576000000     2.448000000
O     4.554000000     8.672000000     4.574000000
H     3.862000000     8.029000000     4.724000000
H     4.696000000     8.655000000     3.627000000
O    -0.031000000     6.853000000     3.521000000
H    -0.166000000     6.315000000     2.741000000
H    -0.698000000     7.537000000     3.459000000
O    -0.524000000     6.202000000    -0.882000000
H    -0.224000000     5.887000000    -0.029000000
H    -1.473000000     6.083000000    -0.861000000
O    -1.847000000     6.801000000     6.023000000
H    -1.490000000     6.228000000     5.344000000
H    -2.723000000     7.026000000     5.710000000
O     1.866000000     7.329000000     1.264000000
H     1.112000000     7.918000000     1.230000000
H     1.485000000     6.458000000     1.368000000
O     3.636000000     5.214000000     3.409000000
H     3.049000000     5.865000000     3.794000000
H     3.145000000     4.859000000     2.668000000
O     5.206000000     4.327000000     5.383000000
H     4.700000000     4.728000000     4.677000000
H     6.113000000     4.361000000     5.078000000
O     1.371000000     3.927000000    -2.330000000
H     0.591000000     3.951000000    -1.775000000
H     1.901000000     3.217000000    -1.967000000
O     2.335000000     7.220000000     5.119000000
H     1.668000000     7.561000000     4.523000000
H     1.980000000     7.383000000     5.993000000
O    -0.386000000     9.026000000     0.544000000
H    -1.243000000     9.010000000     0.116000000
H     0.241000000     8.929000000    -0.173000000
O     3.002000000     5.056000000    -4.035000000
H     2.547000000     4.568000000    -4.722000000
H     2.586000000     4.769000000    -3.222000000
O     4.579000000     7.933000000     1.967000000
H     4.916000000     7.091000000     1.660000000
H     3.641000000     7.897000000     1.781000000
O     3.972000000     5.503000000    -0.603000000
H     3.666000000     6.376000000    -0.846000000
H     3.467000000     5.280000000     0.179000000
O     0.416000000    10.452000000     2.855000000
H    -0.007000000     9.853000000     2.239000000
H     0.447000000     9.965000000     3.679000000
O     0.844000000     6.796000000    -3.168000000
H     0.647000000     6.386000000    -2.325000000
H     1.123000000     6.072000000    -3.727000000
