218
-1482.75972
C     2.917000000    -0.520000000     4.753000000
H     3.487000000    -1.351000000     4.346000000
C     1.521000000    -0.553000000     4.777000000
C     0.780000000     0.529000000     5.262000000
H    -0.303000000     0.458000000     5.332000000
C     0.750000000    -1.657000000     4.068000000
O     1.585000000    -2.799000000     3.931000000
H     0.541000000    -1.195000000     3.092000000
O    -0.511000000    -2.031000000     4.576000000
C    -1.578000000    -2.410000000     3.764000000
C    -2.544000000    -1.416000000     3.703000000
H    -2.407000000    -0.518000000     4.300000000
C    -3.638000000    -1.465000000     2.790000000
O    -4.425000000    -0.319000000     2.546000000
C    -3.779000000    -2.592000000     1.975000000
C    -4.918000000    -2.727000000     1.005000000
H    -5.055000000    -3.810000000     0.957000000
C    -4.439000000    -2.146000000    -0.310000000
C    -3.814000000    -2.893000000    -1.260000000
H    -3.583000000    -3.942000000    -1.095000000
H    -5.801000000    -2.207000000     1.381000000
C    -2.888000000    -3.653000000     2.167000000
H    -3.005000000    -4.582000000     1.614000000
C    -1.705000000    -3.535000000     3.004000000
C    -0.669000000    -4.643000000     3.049000000
H    -1.109000000    -5.586000000     2.720000000
H    -0.419000000    -4.827000000     4.096000000
C     0.511000000    -4.321000000     2.194000000
C     0.605000000    -4.909000000     0.929000000
H    -0.181000000    -5.549000000     0.538000000
C     1.600000000    -3.492000000     2.705000000
C     2.558000000    -3.105000000     1.839000000
H     3.316000000    -2.366000000     2.088000000
C     2.538000000    -3.568000000     0.515000000
O     3.499000000    -3.166000000    -0.362000000
C     3.144000000    -2.261000000    -1.392000000
C     4.287000000    -1.232000000    -1.516000000
C     4.557000000    -0.638000000    -2.743000000
H     4.057000000    -0.992000000    -3.641000000
C     4.984000000    -0.727000000    -0.426000000
H     4.812000000    -1.054000000     0.596000000
O     2.871000000    -2.902000000    -2.606000000
H     2.278000000    -1.670000000    -1.062000000
C     1.635000000    -4.533000000     0.075000000
C     1.543000000    -4.998000000    -1.383000000
H     0.971000000    -5.928000000    -1.356000000
H     2.492000000    -5.359000000    -1.786000000
C     0.838000000    -4.018000000    -2.304000000
C    -0.502000000    -4.101000000    -2.501000000
H    -1.049000000    -4.842000000    -1.924000000
C     1.592000000    -3.094000000    -2.969000000
C     0.927000000    -2.156000000    -3.772000000
H     1.541000000    -1.397000000    -4.252000000
C    -0.423000000    -2.285000000    -4.008000000
O    -1.085000000    -1.297000000    -4.799000000
C    -1.591000000    -0.168000000    -4.000000000
C    -1.295000000     1.176000000    -4.615000000
C    -0.022000000     1.405000000    -5.063000000
H     0.710000000     0.617000000    -5.220000000
C    -2.145000000     2.292000000    -4.497000000
H    -3.115000000     2.192000000    -4.017000000
O    -2.965000000    -0.389000000    -3.907000000
H    -1.037000000    -0.191000000    -3.050000000
C    -1.152000000    -3.291000000    -3.410000000
C    -2.692000000    -3.303000000    -3.501000000
H    -3.086000000    -4.319000000    -3.428000000
H    -2.965000000    -3.048000000    -4.527000000
C    -3.311000000    -2.364000000    -2.451000000
C    -3.515000000    -1.009000000    -2.756000000
C    -4.034000000    -0.215000000    -1.784000000
H    -4.228000000     0.836000000    -1.984000000
C    -4.480000000    -0.814000000    -0.566000000
O    -4.884000000     0.160000000     0.319000000
C    -4.021000000     0.479000000     1.424000000
H    -3.025000000     0.172000000     1.075000000
C    -4.100000000     1.965000000     1.664000000
C    -3.743000000     2.473000000     2.926000000
H    -3.509000000     1.807000000     3.753000000
C    -4.273000000     2.782000000     0.514000000
H    -4.438000000     2.383000000    -0.484000000
C    -4.125000000     4.171000000     0.730000000
O    -4.196000000     5.061000000    -0.325000000
C    -3.812000000     4.710000000     1.965000000
H    -3.573000000     5.769000000     2.025000000
C    -3.588000000     3.854000000     3.052000000
O    -3.073000000     4.434000000     4.249000000
C    -2.488000000     3.682000000     5.230000000
C    -1.128000000     3.485000000     5.208000000
H    -0.519000000     3.841000000     4.382000000
C    -3.289000000     3.272000000     6.310000000
H    -4.355000000     3.469000000     6.224000000
C    -2.723000000     2.767000000     7.418000000
H    -3.327000000     2.416000000     8.251000000
C    -1.340000000     2.508000000     7.407000000
H    -0.903000000     1.983000000     8.252000000
C    -0.550000000     2.899000000     6.295000000
O     0.810000000     2.711000000     6.238000000
C     1.526000000     1.649000000     5.742000000
C     2.937000000     1.739000000     5.693000000
H     3.448000000     2.655000000     5.977000000
C     3.612000000     0.641000000     5.153000000
O     4.989000000     0.887000000     5.047000000
C     5.724000000     0.300000000     4.045000000
C     5.646000000     0.783000000     2.698000000
H     4.947000000     1.587000000     2.481000000
C     6.757000000    -0.612000000     4.364000000
H     6.907000000    -1.018000000     5.361000000
C     7.592000000    -1.129000000     3.365000000
H     8.451000000    -1.750000000     3.607000000
C     7.318000000    -0.755000000     2.039000000
H     8.037000000    -1.109000000     1.304000000
C     6.455000000     0.247000000     1.723000000
O     6.491000000     0.874000000     0.469000000
C     5.900000000     0.277000000    -0.646000000
C     6.160000000     0.782000000    -1.900000000
H     6.828000000     1.637000000    -1.972000000
C     5.454000000     0.381000000    -2.944000000
O     5.681000000     0.949000000    -4.189000000
C     4.627000000     1.003000000    -5.120000000
C     3.637000000     1.959000000    -4.973000000
H     3.667000000     2.598000000    -4.095000000
C     4.723000000     0.111000000    -6.175000000
H     5.522000000    -0.615000000    -6.304000000
C     3.767000000     0.171000000    -7.179000000
H     3.904000000    -0.492000000    -8.030000000
C     2.778000000     1.215000000    -7.168000000
H     2.022000000     1.343000000    -7.939000000
C     2.685000000     2.063000000    -6.030000000
O     1.673000000     2.982000000    -5.961000000
C     0.380000000     2.688000000    -5.521000000
C    -0.511000000     3.784000000    -5.498000000
H    -0.140000000     4.740000000    -5.857000000
C    -1.705000000     3.583000000    -4.838000000
O    -2.599000000     4.634000000    -4.707000000
C    -3.645000000     4.657000000    -3.858000000
C    -4.931000000     4.306000000    -4.305000000
H    -5.072000000     4.241000000    -5.381000000
C    -6.010000000     4.164000000    -3.399000000
H    -6.958000000     3.961000000    -3.890000000
C    -5.734000000     4.411000000    -2.061000000
H    -6.583000000     4.236000000    -1.405000000
C    -4.431000000     4.781000000    -1.650000000
C    -3.340000000     4.855000000    -2.511000000
H    -2.386000000     5.236000000    -2.157000000
C    -0.898000000     2.975000000     0.213000000
H    -1.457000000     3.774000000    -0.266000000
C    -1.045000000     1.635000000    -0.177000000
H    -1.865000000     1.484000000    -0.875000000
C    -0.137000000     0.667000000     0.286000000
C    -0.246000000    -0.765000000    -0.167000000
H     0.091000000    -1.496000000     0.571000000
H    -1.316000000    -0.955000000    -0.279000000
H     0.249000000    -0.995000000    -1.113000000
C     0.832000000     1.048000000     1.165000000
H     1.494000000     0.246000000     1.481000000
C     0.884000000     2.376000000     1.622000000
H     1.505000000     2.686000000     2.459000000
C     0.124000000     3.354000000     1.034000000
C     0.211000000     4.817000000     1.443000000
O     0.769000000     5.114000000     2.460000000
O    -0.093000000     5.710000000     0.693000000
O     2.613000000     2.496000000    -1.197000000
H     2.060000000     3.231000000    -1.463000000
H     2.157000000     2.112000000    -0.448000000
O    -0.063000000    10.380000000    -0.832000000
H     0.638000000    10.050000000    -1.394000000
H    -0.316000000     9.627000000    -0.297000000
O     5.842000000     4.013000000     3.545000000
H     5.823000000     3.826000000     2.606000000
H     4.921000000     4.099000000     3.790000000
O     3.349000000     7.879000000     2.804000000
H     3.443000000     6.973000000     3.096000000
H     2.692000000     8.253000000     3.390000000
O    -2.429000000     8.384000000    -2.712000000
H    -1.847000000     8.053000000    -2.028000000
H    -2.074000000     8.024000000    -3.525000000
O    -2.566000000     8.536000000     2.323000000
H    -2.778000000     9.072000000     3.087000000
H    -3.393000000     8.459000000     1.848000000
O    -0.269000000     6.437000000     6.107000000
H    -0.346000000     5.495000000     5.961000000
H    -0.350000000     6.823000000     5.235000000
O    -1.384000000     7.695000000    -0.266000000
H    -0.974000000     6.902000000     0.080000000
H    -1.697000000     8.161000000     0.510000000
O     2.140000000     7.588000000     0.368000000
H     2.384000000     7.929000000     1.228000000
H     1.428000000     6.975000000     0.546000000
O     3.028000000     5.082000000     3.864000000
H     2.557000000     5.521000000     4.573000000
H     2.352000000     4.883000000     3.215000000
O     5.873000000     7.955000000     1.733000000
H     5.951000000     7.427000000     0.939000000
H     5.051000000     7.668000000     2.132000000
O     1.187000000     4.849000000    -2.204000000
H     1.245000000     5.679000000    -2.678000000
H     0.612000000     5.038000000    -1.462000000
O     2.281000000     6.854000000     6.317000000
H     1.332000000     6.757000000     6.240000000
H     2.399000000     7.595000000     6.911000000
O    -1.115000000    10.892000000     2.237000000
H    -1.182000000    11.350000000     1.399000000
H    -1.585000000    10.070000000     2.099000000
O     3.749000000     5.279000000    -2.626000000
H     2.935000000     4.927000000    -2.267000000
H     3.479000000     5.754000000    -3.413000000
O     2.215000000     9.147000000    -2.114000000
H     1.894000000     8.440000000    -2.675000000
H     2.629000000     8.698000000    -1.377000000
O     4.738000000     4.167000000    -0.018000000
H     4.100000000     3.457000000    -0.091000000
H     4.859000000     4.474000000    -0.916000000
O     1.026000000     9.128000000     4.746000000
H     0.613000000     8.388000000     4.302000000
H     0.294000000     9.629000000     5.108000000
O    -0.085000000     7.222000000     3.438000000
H    -0.794000000     7.480000000     2.849000000
H     0.379000000     6.530000000     2.966000000
