218
-1458.24018
C     2.091000000    -0.481000000     4.175000000
H     2.674000000    -1.067000000     3.469000000
C     0.700000000    -0.690000000     4.391000000
C    -0.011000000     0.198000000     5.231000000
H    -1.047000000     0.010000000     5.501000000
C     0.041000000    -1.917000000     3.787000000
O     0.924000000    -3.067000000     3.748000000
H    -0.265000000    -1.739000000     2.745000000
O    -1.187000000    -2.176000000     4.401000000
C    -2.238000000    -2.266000000     3.579000000
C    -3.043000000    -1.199000000     3.342000000
H    -2.848000000    -0.329000000     3.964000000
C    -3.903000000    -1.228000000     2.259000000
O    -4.667000000    -0.081000000     1.952000000
C    -3.952000000    -2.273000000     1.329000000
C    -4.860000000    -2.216000000     0.155000000
H    -5.184000000    -3.211000000    -0.154000000
C    -4.306000000    -1.579000000    -1.034000000
C    -3.674000000    -2.402000000    -1.929000000
H    -3.480000000    -3.428000000    -1.626000000
H    -5.809000000    -1.704000000     0.331000000
C    -3.136000000    -3.342000000     1.566000000
H    -2.959000000    -4.101000000     0.809000000
C    -2.282000000    -3.384000000     2.682000000
C    -1.360000000    -4.600000000     2.900000000
H    -1.940000000    -5.489000000     2.644000000
H    -1.012000000    -4.732000000     3.927000000
C    -0.147000000    -4.375000000     2.012000000
C    -0.100000000    -4.815000000     0.659000000
H    -0.948000000    -5.406000000     0.322000000
C     1.000000000    -3.740000000     2.566000000
C     2.149000000    -3.555000000     1.814000000
H     3.007000000    -2.953000000     2.103000000
C     2.134000000    -3.898000000     0.479000000
O     3.276000000    -3.608000000    -0.255000000
C     3.195000000    -2.675000000    -1.243000000
C     4.451000000    -1.950000000    -1.222000000
C     4.954000000    -1.406000000    -2.413000000
H     4.355000000    -1.513000000    -3.313000000
C     5.085000000    -1.612000000    -0.013000000
H     4.757000000    -2.033000000     0.934000000
O     2.955000000    -3.278000000    -2.584000000
H     2.431000000    -1.960000000    -0.903000000
C     1.035000000    -4.558000000    -0.098000000
C     1.112000000    -5.138000000    -1.527000000
H     0.400000000    -5.963000000    -1.589000000
H     2.114000000    -5.540000000    -1.690000000
C     0.733000000    -4.200000000    -2.691000000
C    -0.552000000    -4.028000000    -3.140000000
H    -1.260000000    -4.738000000    -2.720000000
C     1.674000000    -3.266000000    -3.080000000
C     1.351000000    -2.282000000    -4.011000000
H     2.052000000    -1.487000000    -4.250000000
C    -0.005000000    -2.042000000    -4.296000000
O    -0.301000000    -0.945000000    -5.016000000
C    -0.943000000     0.116000000    -4.247000000
C    -0.405000000     1.501000000    -4.662000000
C     0.942000000     1.623000000    -4.637000000
H     1.572000000     0.737000000    -4.651000000
C    -1.256000000     2.667000000    -4.533000000
H    -2.333000000     2.535000000    -4.468000000
O    -2.406000000     0.091000000    -4.269000000
H    -0.597000000    -0.083000000    -3.221000000
C    -0.945000000    -2.898000000    -3.861000000
C    -2.438000000    -2.773000000    -4.162000000
H    -2.815000000    -3.798000000    -4.140000000
H    -2.620000000    -2.340000000    -5.147000000
C    -3.161000000    -1.882000000    -3.166000000
C    -3.176000000    -0.529000000    -3.353000000
C    -3.928000000     0.243000000    -2.472000000
H    -3.787000000     1.310000000    -2.628000000
C    -4.368000000    -0.220000000    -1.261000000
O    -4.922000000     0.561000000    -0.301000000
C    -4.199000000     0.819000000     0.924000000
H    -3.131000000     0.577000000     0.822000000
C    -4.161000000     2.199000000     1.329000000
C    -4.336000000     2.631000000     2.647000000
H    -4.636000000     1.878000000     3.371000000
C    -3.866000000     3.140000000     0.334000000
H    -3.790000000     2.905000000    -0.724000000
C    -3.601000000     4.439000000     0.712000000
O    -3.115000000     5.376000000    -0.225000000
C    -3.641000000     4.891000000     2.087000000
H    -3.482000000     5.926000000     2.381000000
C    -3.905000000     3.946000000     3.044000000
O    -3.816000000     4.257000000     4.406000000
C    -3.386000000     3.371000000     5.351000000
C    -1.976000000     3.142000000     5.349000000
H    -1.333000000     3.512000000     4.556000000
C    -4.173000000     2.925000000     6.415000000
H    -5.248000000     3.082000000     6.373000000
C    -3.627000000     2.288000000     7.541000000
H    -4.298000000     1.951000000     8.327000000
C    -2.171000000     2.143000000     7.616000000
H    -1.720000000     1.622000000     8.457000000
C    -1.402000000     2.481000000     6.462000000
O    -0.042000000     2.251000000     6.547000000
C     0.602000000     1.322000000     5.745000000
C     1.960000000     1.551000000     5.534000000
H     2.348000000     2.533000000     5.793000000
C     2.667000000     0.547000000     4.845000000
O     4.035000000     0.746000000     4.688000000
C     4.857000000    -0.179000000     4.080000000
C     5.474000000     0.076000000     2.851000000
H     5.294000000     1.032000000     2.366000000
C     5.159000000    -1.327000000     4.773000000
H     4.696000000    -1.614000000     5.713000000
C     5.995000000    -2.276000000     4.286000000
H     6.268000000    -3.188000000     4.809000000
C     6.588000000    -2.024000000     3.038000000
H     7.236000000    -2.777000000     2.595000000
C     6.399000000    -0.835000000     2.309000000
O     7.011000000    -0.564000000     1.115000000
C     6.249000000    -0.771000000    -0.007000000
C     6.765000000    -0.256000000    -1.216000000
H     7.627000000     0.406000000    -1.215000000
C     6.076000000    -0.533000000    -2.429000000
O     6.434000000     0.163000000    -3.554000000
C     5.486000000     0.629000000    -4.483000000
C     4.583000000     1.613000000    -4.103000000
H     4.667000000     2.002000000    -3.092000000
C     5.615000000     0.248000000    -5.803000000
H     6.341000000    -0.533000000    -6.018000000
C     4.812000000     0.831000000    -6.767000000
H     4.854000000     0.569000000    -7.821000000
C     3.823000000     1.765000000    -6.370000000
H     3.127000000     2.218000000    -7.071000000
C     3.722000000     2.167000000    -5.029000000
O     2.850000000     3.154000000    -4.650000000
C     1.445000000     2.936000000    -4.684000000
C     0.624000000     4.095000000    -4.675000000
H     1.203000000     5.015000000    -4.692000000
C    -0.725000000     3.948000000    -4.672000000
O    -1.476000000     5.065000000    -4.690000000
C    -2.594000000     5.241000000    -3.785000000
C    -3.822000000     5.602000000    -4.220000000
H    -4.060000000     5.695000000    -5.276000000
C    -4.873000000     5.764000000    -3.313000000
H    -5.845000000     5.996000000    -3.740000000
C    -4.630000000     5.529000000    -1.948000000
H    -5.439000000     5.622000000    -1.228000000
C    -3.371000000     5.362000000    -1.523000000
C    -2.300000000     5.173000000    -2.411000000
H    -1.290000000     5.068000000    -2.022000000
C    -0.216000000     2.437000000     1.071000000
H    -0.847000000     3.314000000     0.952000000
C    -0.469000000     1.279000000     0.334000000
H    -1.345000000     1.284000000    -0.310000000
C     0.400000000     0.196000000     0.355000000
C    -0.120000000    -1.067000000    -0.318000000
H    -1.178000000    -0.955000000    -0.562000000
H     0.458000000    -1.275000000    -1.221000000
H     0.081000000    -1.928000000     0.323000000
C     1.601000000     0.351000000     1.093000000
H     2.345000000    -0.441000000     1.101000000
C     1.846000000     1.465000000     1.891000000
H     2.673000000     1.523000000     2.594000000
C     0.938000000     2.531000000     1.910000000
C     1.233000000     3.843000000     2.558000000
O     2.372000000     4.160000000     2.947000000
O     0.278000000     4.619000000     2.766000000
O     2.939000000     2.755000000    -0.689000000
H     3.738000000     2.244000000    -0.817000000
H     2.334000000     2.150000000    -0.260000000
O    -3.085000000     8.771000000     1.256000000
H    -3.548000000     8.903000000     2.084000000
H    -2.453000000     8.077000000     1.444000000
O     4.451000000     8.718000000     2.035000000
H     4.117000000     9.388000000     1.439000000
H     3.679000000     8.205000000     2.276000000
O     3.164000000     8.635000000     5.750000000
H     2.989000000     7.874000000     6.304000000
H     2.467000000     8.619000000     5.094000000
O     0.744000000     7.563000000    -3.079000000
H     0.905000000     7.385000000    -4.006000000
H     1.177000000     6.845000000    -2.618000000
O     6.532000000     5.306000000     3.272000000
H     6.203000000     5.095000000     2.398000000
H     5.825000000     5.049000000     3.863000000
O    -0.426000000     5.929000000     5.065000000
H    -0.866000000     6.700000000     4.708000000
H    -0.251000000     5.378000000     4.301000000
O    -1.046000000     6.986000000     2.385000000
H    -0.757000000     6.083000000     2.510000000
H    -0.237000000     7.497000000     2.366000000
O    -1.625000000     5.800000000     7.313000000
H    -2.425000000     5.306000000     7.136000000
H    -1.164000000     5.818000000     6.474000000
O     2.303000000     6.851000000     2.405000000
H     2.171000000     5.953000000     2.710000000
H     1.835000000     7.391000000     3.042000000
O     4.374000000     3.589000000     4.505000000
H     4.282000000     2.636000000     4.528000000
H     3.567000000     3.897000000     4.093000000
O     2.355000000     5.066000000    -2.167000000
H     2.271000000     4.311000000    -1.584000000
H     2.438000000     4.686000000    -3.041000000
O     1.669000000     5.922000000     7.268000000
H     1.177000000     6.072000000     8.076000000
H     0.998000000     5.746000000     6.609000000
O     3.829000000     6.752000000    -0.199000000
H     3.472000000     6.107000000    -0.809000000
H     3.075000000     7.036000000     0.318000000
O     4.295000000     6.255000000     6.407000000
H     3.482000000     5.911000000     6.777000000
H     4.514000000     5.646000000     5.702000000
O     4.681000000     4.638000000     1.357000000
H     4.359000000     5.241000000     0.686000000
H     3.923000000     4.480000000     1.920000000
O     5.962000000     3.439000000    -0.960000000
H     5.725000000     3.989000000    -0.214000000
H     6.704000000     3.889000000    -1.363000000
O     6.844000000     3.196000000     6.179000000
H     6.255000000     3.696000000     5.613000000
H     6.814000000     3.653000000     7.019000000
O     1.089000000     8.992000000     4.045000000
H     1.242000000     9.448000000     3.217000000
H     0.206000000     9.256000000     4.304000000
