218
-1446.89825
C     1.690000000    -1.555000000     4.486000000
H     2.356000000    -2.036000000     3.774000000
C     0.279000000    -1.702000000     4.444000000
C    -0.592000000    -1.069000000     5.329000000
H    -1.675000000    -1.087000000     5.414000000
C    -0.296000000    -2.627000000     3.434000000
O     0.568000000    -3.729000000     3.149000000
H    -0.425000000    -2.085000000     2.485000000
O    -1.643000000    -3.105000000     3.773000000
C    -2.616000000    -3.029000000     2.808000000
C    -3.382000000    -1.915000000     2.837000000
H    -3.254000000    -1.145000000     3.593000000
C    -4.070000000    -1.590000000     1.692000000
O    -4.592000000    -0.278000000     1.660000000
C    -4.211000000    -2.454000000     0.615000000
C    -5.094000000    -2.088000000    -0.647000000
H    -5.486000000    -3.054000000    -0.975000000
C    -4.265000000    -1.292000000    -1.631000000
C    -3.651000000    -1.912000000    -2.739000000
H    -3.601000000    -2.997000000    -2.783000000
H    -5.962000000    -1.527000000    -0.293000000
C    -3.458000000    -3.629000000     0.650000000
H    -3.460000000    -4.315000000    -0.194000000
C    -2.663000000    -3.971000000     1.725000000
C    -1.730000000    -5.250000000     1.677000000
H    -2.320000000    -5.873000000     1.002000000
H    -1.607000000    -5.720000000     2.655000000
C    -0.338000000    -4.942000000     1.154000000
C    -0.119000000    -5.170000000    -0.198000000
H    -0.950000000    -5.560000000    -0.780000000
C     0.642000000    -4.229000000     1.851000000
C     1.839000000    -3.867000000     1.204000000
H     2.655000000    -3.390000000     1.742000000
C     2.034000000    -4.190000000    -0.137000000
O     3.207000000    -3.620000000    -0.661000000
C     3.108000000    -2.513000000    -1.569000000
C     4.340000000    -1.620000000    -1.398000000
C     4.996000000    -1.047000000    -2.505000000
H     4.798000000    -1.270000000    -3.550000000
C     4.679000000    -1.164000000    -0.089000000
H     4.192000000    -1.590000000     0.785000000
O     3.073000000    -2.972000000    -2.933000000
H     2.240000000    -1.870000000    -1.358000000
C     0.998000000    -4.743000000    -0.918000000
C     1.091000000    -4.972000000    -2.428000000
H     0.271000000    -5.684000000    -2.546000000
H     2.097000000    -5.317000000    -2.673000000
C     0.788000000    -3.745000000    -3.259000000
C    -0.483000000    -3.481000000    -3.669000000
H    -1.306000000    -4.179000000    -3.543000000
C     1.845000000    -2.849000000    -3.506000000
C     1.514000000    -1.601000000    -4.107000000
H     2.247000000    -0.805000000    -4.209000000
C     0.244000000    -1.306000000    -4.475000000
O    -0.025000000    -0.028000000    -5.024000000
C    -0.622000000     0.860000000    -4.055000000
C     0.052000000     2.189000000    -3.961000000
C     1.334000000     2.365000000    -4.516000000
H     1.825000000     1.565000000    -5.063000000
C    -0.585000000     3.263000000    -3.345000000
H    -1.543000000     3.084000000    -2.864000000
O    -2.049000000     1.000000000    -4.349000000
H    -0.551000000     0.357000000    -3.080000000
C    -0.800000000    -2.246000000    -4.219000000
C    -2.230000000    -1.972000000    -4.760000000
H    -2.781000000    -2.880000000    -5.015000000
H    -2.175000000    -1.447000000    -5.715000000
C    -3.006000000    -1.130000000    -3.711000000
C    -2.900000000     0.218000000    -3.547000000
C    -3.458000000     0.812000000    -2.430000000
H    -3.494000000     1.896000000    -2.366000000
C    -4.145000000     0.085000000    -1.451000000
O    -4.723000000     0.837000000    -0.425000000
C    -4.008000000     0.792000000     0.872000000
H    -2.965000000     0.502000000     0.678000000
C    -3.952000000     2.107000000     1.540000000
C    -3.733000000     2.187000000     2.930000000
H    -3.685000000     1.259000000     3.494000000
C    -4.020000000     3.313000000     0.766000000
H    -4.284000000     3.334000000    -0.288000000
C    -3.828000000     4.536000000     1.371000000
O    -3.953000000     5.664000000     0.656000000
C    -3.680000000     4.582000000     2.747000000
H    -3.655000000     5.596000000     3.138000000
C    -3.646000000     3.485000000     3.561000000
O    -3.311000000     3.665000000     4.838000000
C    -3.220000000     2.684000000     5.793000000
C    -2.025000000     1.980000000     5.981000000
H    -1.258000000     2.205000000     5.244000000
C    -4.384000000     2.361000000     6.571000000
H    -5.299000000     2.935000000     6.451000000
C    -4.325000000     1.333000000     7.527000000
H    -5.233000000     1.136000000     8.090000000
C    -3.136000000     0.598000000     7.725000000
H    -3.029000000    -0.203000000     8.452000000
C    -1.974000000     0.971000000     6.992000000
O    -0.781000000     0.413000000     7.212000000
C    -0.007000000    -0.305000000     6.349000000
C     1.433000000    -0.200000000     6.400000000
H     1.886000000     0.390000000     7.193000000
C     2.271000000    -0.795000000     5.489000000
O     3.598000000    -0.740000000     5.614000000
C     4.624000000    -0.989000000     4.698000000
C     4.687000000    -0.330000000     3.471000000
H     3.895000000     0.377000000     3.237000000
C     5.627000000    -1.901000000     4.975000000
H     5.587000000    -2.426000000     5.926000000
C     6.683000000    -2.220000000     4.012000000
H     7.353000000    -3.055000000     4.196000000
C     6.759000000    -1.409000000     2.855000000
H     7.556000000    -1.565000000     2.132000000
C     5.754000000    -0.530000000     2.584000000
O     5.778000000     0.279000000     1.455000000
C     5.546000000    -0.136000000     0.172000000
C     6.139000000     0.418000000    -0.939000000
H     6.782000000     1.281000000    -0.788000000
C     5.912000000    -0.018000000    -2.259000000
O     6.440000000     0.754000000    -3.279000000
C     5.675000000     1.230000000    -4.307000000
C     4.615000000     2.125000000    -4.095000000
H     4.371000000     2.388000000    -3.068000000
C     6.153000000     1.012000000    -5.581000000
H     7.003000000     0.349000000    -5.728000000
C     5.409000000     1.440000000    -6.732000000
H     5.679000000     1.189000000    -7.754000000
C     4.363000000     2.339000000    -6.480000000
H     3.837000000     2.751000000    -7.337000000
C     3.997000000     2.692000000    -5.169000000
O     3.089000000     3.701000000    -5.057000000
C     1.953000000     3.574000000    -4.398000000
C     1.330000000     4.674000000    -3.740000000
H     1.859000000     5.619000000    -3.833000000
C     0.094000000     4.482000000    -3.119000000
O    -0.504000000     5.601000000    -2.556000000
C    -1.752000000     5.748000000    -2.264000000
C    -2.625000000     6.043000000    -3.262000000
H    -2.226000000     6.143000000    -4.268000000
C    -4.000000000     6.248000000    -2.955000000
H    -4.689000000     6.535000000    -3.745000000
C    -4.446000000     6.084000000    -1.639000000
H    -5.491000000     6.195000000    -1.360000000
C    -3.565000000     5.849000000    -0.641000000
C    -2.209000000     5.787000000    -0.932000000
H    -1.464000000     5.796000000    -0.140000000
C    -0.184000000     2.988000000     1.146000000
H    -0.595000000     3.956000000     0.873000000
C    -0.659000000     1.991000000     0.259000000
H    -1.480000000     2.185000000    -0.427000000
C    -0.017000000     0.742000000     0.388000000
C    -0.623000000    -0.499000000    -0.356000000
H    -1.291000000    -0.242000000    -1.181000000
H     0.091000000    -1.264000000    -0.667000000
H    -1.295000000    -0.962000000     0.370000000
C     1.021000000     0.552000000     1.260000000
H     1.563000000    -0.382000000     1.390000000
C     1.356000000     1.556000000     2.164000000
H     1.966000000     1.289000000     3.023000000
C     0.868000000     2.835000000     2.044000000
C     0.882000000     3.853000000     3.122000000
O     1.688000000     3.828000000     4.011000000
O     0.383000000     4.922000000     2.954000000
O     3.174000000     2.107000000    -0.674000000
H     3.894000000     1.595000000    -0.305000000
H     2.541000000     2.180000000     0.040000000
O     0.447000000     3.264000000     9.220000000
H    -0.430000000     3.598000000     9.407000000
H     0.662000000     3.625000000     8.360000000
O     1.272000000     8.916000000     2.750000000
H     1.045000000     8.842000000     3.677000000
H     0.921000000     9.765000000     2.483000000
O     4.863000000     8.188000000     5.563000000
H     4.427000000     7.541000000     5.008000000
H     4.434000000     9.016000000     5.348000000
O     3.098000000     6.914000000     2.311000000
H     2.456000000     7.611000000     2.444000000
H     3.146000000     6.468000000     3.156000000
O     3.968000000     7.417000000    -0.748000000
H     3.499000000     7.101000000     0.024000000
H     3.979000000     6.668000000    -1.345000000
O     0.598000000     7.430000000    -0.904000000
H     0.035000000     7.074000000    -0.216000000
H     1.280000000     6.769000000    -1.022000000
O    -0.227000000     6.341000000     5.025000000
H    -0.995000000     5.912000000     5.403000000
H     0.037000000     5.768000000     4.306000000
O    -0.404000000     7.068000000     1.828000000
H     0.113000000     7.724000000     2.295000000
H    -0.130000000     6.233000000     2.206000000
O    -2.720000000     5.698000000     6.764000000
H    -3.268000000     5.283000000     6.098000000
H    -2.965000000     6.622000000     6.736000000
O     3.084000000     5.854000000     4.784000000
H     3.101000000     5.733000000     5.734000000
H     2.370000000     5.292000000     4.484000000
O     4.544000000     1.886000000     6.491000000
H     4.561000000     2.157000000     5.573000000
H     4.157000000     1.010000000     6.475000000
O     2.706000000     4.890000000    -0.688000000
H     2.199000000     4.122000000    -0.953000000
H     3.547000000     4.787000000    -1.133000000
O     0.887000000     4.232000000     6.789000000
H     1.141000000     3.799000000     5.974000000
H     0.565000000     5.090000000     6.514000000
O     4.178000000     4.363000000     1.620000000
H     4.087000000     5.260000000     1.941000000
H     3.663000000     4.343000000     0.814000000
O     4.166000000     2.919000000     3.790000000
H     4.347000000     3.261000000     2.914000000
H     3.255000000     3.159000000     3.957000000
O     6.982000000     3.948000000     3.721000000
H     6.933000000     4.610000000     3.032000000
H     6.113000000     3.546000000     3.730000000
O     0.736000000     8.671000000     6.018000000
H     0.389000000     7.957000000     5.482000000
H     0.430000000     8.477000000     6.903000000
O    -2.696000000     8.511000000     1.692000000
H    -3.576000000     8.231000000     1.437000000
H    -2.221000000     7.694000000     1.846000000
