218
-1452.42191
C     1.290000000    -2.966000000     3.319000000
H     1.949000000    -3.351000000     2.545000000
C    -0.150000000    -2.965000000     3.255000000
C    -0.865000000    -2.273000000     4.229000000
H    -1.930000000    -2.136000000     4.060000000
C    -0.770000000    -3.522000000     2.017000000
O    -0.092000000    -4.652000000     1.559000000
H    -0.736000000    -2.700000000     1.287000000
O    -2.167000000    -3.847000000     2.330000000
C    -3.139000000    -3.305000000     1.531000000
C    -3.723000000    -2.102000000     1.893000000
H    -3.674000000    -1.889000000     2.958000000
C    -4.341000000    -1.321000000     0.914000000
O    -4.959000000    -0.129000000     1.234000000
C    -4.382000000    -1.741000000    -0.414000000
C    -5.276000000    -1.075000000    -1.446000000
H    -5.645000000    -1.786000000    -2.188000000
C    -4.549000000     0.086000000    -2.108000000
C    -3.976000000    -0.122000000    -3.383000000
H    -4.156000000    -1.069000000    -3.885000000
H    -6.172000000    -0.632000000    -1.006000000
C    -3.811000000    -2.976000000    -0.811000000
H    -3.731000000    -3.297000000    -1.847000000
C    -3.141000000    -3.725000000     0.190000000
C    -2.463000000    -4.992000000    -0.243000000
H    -2.990000000    -5.458000000    -1.078000000
H    -2.403000000    -5.713000000     0.575000000
C    -1.048000000    -4.562000000    -0.640000000
C    -0.818000000    -4.401000000    -1.996000000
H    -1.620000000    -4.648000000    -2.687000000
C     0.070000000    -4.559000000     0.190000000
C     1.396000000    -4.357000000    -0.302000000
H     2.166000000    -4.461000000     0.458000000
C     1.578000000    -4.173000000    -1.620000000
O     2.770000000    -3.638000000    -1.946000000
C     2.892000000    -2.268000000    -2.237000000
C     4.295000000    -1.740000000    -1.660000000
C     4.871000000    -0.620000000    -2.289000000
H     4.416000000    -0.215000000    -3.190000000
C     4.848000000    -2.382000000    -0.543000000
H     4.320000000    -3.220000000    -0.096000000
O     2.849000000    -2.043000000    -3.605000000
H     2.051000000    -1.737000000    -1.767000000
C     0.431000000    -4.072000000    -2.445000000
C     0.653000000    -3.843000000    -3.920000000
H    -0.075000000    -4.430000000    -4.483000000
H     1.684000000    -4.163000000    -4.088000000
C     0.480000000    -2.365000000    -4.180000000
C    -0.668000000    -1.746000000    -4.503000000
H    -1.525000000    -2.395000000    -4.665000000
C     1.639000000    -1.571000000    -4.081000000
C     1.596000000    -0.211000000    -4.233000000
H     2.495000000     0.357000000    -4.007000000
C     0.347000000     0.362000000    -4.589000000
O     0.301000000     1.742000000    -4.567000000
C    -0.184000000     2.394000000    -3.371000000
C     0.626000000     3.597000000    -2.950000000
C     1.991000000     3.707000000    -3.320000000
H     2.368000000     2.944000000    -3.996000000
C     0.077000000     4.437000000    -1.951000000
H    -0.945000000     4.203000000    -1.663000000
O    -1.557000000     2.719000000    -3.588000000
H    -0.045000000     1.631000000    -2.591000000
C    -0.798000000    -0.409000000    -4.735000000
C    -2.120000000     0.209000000    -5.069000000
H    -2.676000000    -0.620000000    -5.511000000
H    -2.138000000     0.967000000    -5.855000000
C    -2.938000000     0.719000000    -3.814000000
C    -2.669000000     1.928000000    -3.134000000
C    -3.377000000     2.237000000    -2.013000000
H    -3.267000000     3.182000000    -1.487000000
C    -4.274000000     1.364000000    -1.512000000
O    -4.717000000     1.681000000    -0.263000000
C    -4.181000000     1.029000000     0.951000000
H    -3.139000000     0.782000000     0.701000000
C    -4.159000000     1.993000000     2.162000000
C    -4.566000000     1.614000000     3.436000000
H    -5.068000000     0.661000000     3.581000000
C    -3.744000000     3.276000000     1.926000000
H    -3.449000000     3.520000000     0.908000000
C    -3.514000000     4.110000000     3.038000000
O    -2.855000000     5.348000000     2.865000000
C    -3.897000000     3.698000000     4.344000000
H    -3.497000000     4.290000000     5.164000000
C    -4.512000000     2.478000000     4.543000000
O    -4.869000000     1.984000000     5.780000000
C    -4.255000000     0.844000000     6.232000000
C    -2.854000000     0.785000000     6.110000000
H    -2.242000000     1.654000000     5.883000000
C    -4.996000000    -0.207000000     6.653000000
H    -6.078000000    -0.112000000     6.608000000
C    -4.393000000    -1.468000000     6.894000000
H    -5.065000000    -2.239000000     7.261000000
C    -3.057000000    -1.593000000     6.660000000
H    -2.619000000    -2.582000000     6.765000000
C    -2.268000000    -0.495000000     6.247000000
O    -0.869000000    -0.583000000     6.046000000
C    -0.223000000    -1.493000000     5.231000000
C     1.171000000    -1.539000000     5.279000000
H     1.744000000    -1.061000000     6.069000000
C     1.904000000    -2.274000000     4.385000000
O     3.250000000    -2.118000000     4.496000000
C     4.165000000    -2.832000000     3.818000000
C     4.851000000    -2.263000000     2.689000000
H     4.630000000    -1.280000000     2.280000000
C     4.607000000    -4.077000000     4.260000000
H     4.205000000    -4.479000000     5.187000000
C     5.751000000    -4.658000000     3.735000000
H     6.230000000    -5.454000000     4.299000000
C     6.370000000    -4.195000000     2.631000000
H     7.302000000    -4.601000000     2.247000000
C     5.871000000    -3.033000000     1.989000000
O     6.610000000    -2.512000000     0.972000000
C     6.055000000    -1.901000000    -0.090000000
C     6.613000000    -0.792000000    -0.732000000
H     7.555000000    -0.412000000    -0.347000000
C     6.065000000    -0.136000000    -1.779000000
O     6.745000000     0.929000000    -2.256000000
C     6.329000000     1.982000000    -3.064000000
C     5.468000000     2.863000000    -2.560000000
H     5.110000000     2.817000000    -1.534000000
C     6.711000000     1.953000000    -4.369000000
H     7.409000000     1.197000000    -4.721000000
C     6.197000000     2.877000000    -5.298000000
H     6.423000000     2.774000000    -6.357000000
C     5.277000000     3.785000000    -4.810000000
H     4.780000000     4.503000000    -5.458000000
C     4.941000000     3.773000000    -3.438000000
O     4.125000000     4.765000000    -3.057000000
C     2.838000000     4.619000000    -2.678000000
C     2.268000000     5.471000000    -1.790000000
H     2.851000000     6.362000000    -1.572000000
C     0.923000000     5.409000000    -1.423000000
O     0.469000000     6.226000000    -0.387000000
C    -0.843000000     6.190000000    -0.040000000
C    -1.817000000     6.704000000    -0.906000000
H    -1.537000000     7.192000000    -1.836000000
C    -3.169000000     6.865000000    -0.440000000
H    -3.929000000     7.304000000    -1.082000000
C    -3.479000000     6.359000000     0.834000000
H    -4.499000000     6.387000000     1.211000000
C    -2.489000000     5.756000000     1.643000000
C    -1.163000000     5.739000000     1.210000000
H    -0.324000000     5.660000000     1.897000000
C    -0.321000000     2.452000000     1.703000000
H    -0.788000000     3.384000000     2.009000000
C    -0.784000000     1.838000000     0.577000000
H    -1.436000000     2.428000000    -0.063000000
C    -0.339000000     0.564000000     0.286000000
C    -0.943000000    -0.312000000    -0.823000000
H    -1.938000000     0.114000000    -0.970000000
H    -0.434000000    -0.345000000    -1.789000000
H    -1.074000000    -1.316000000    -0.416000000
C     0.511000000    -0.077000000     1.178000000
H     0.811000000    -1.096000000     0.946000000
C     1.056000000     0.613000000     2.268000000
H     1.755000000     0.154000000     2.962000000
C     0.604000000     1.895000000     2.568000000
C     1.018000000     2.500000000     3.857000000
O     2.023000000     2.171000000     4.442000000
O     0.316000000     3.363000000     4.360000000
O     7.441000000     3.465000000     4.221000000
H     7.229000000     3.946000000     3.421000000
H     6.603000000     3.106000000     4.513000000
O     3.471000000    -0.618000000     8.261000000
H     2.886000000    -1.361000000     8.406000000
H     2.921000000     0.043000000     7.841000000
O     3.159000000     5.087000000     2.433000000
H     2.510000000     5.776000000     2.572000000
H     3.339000000     4.748000000     3.310000000
O     1.934000000     1.338000000     7.030000000
H     1.133000000     1.803000000     7.275000000
H     1.990000000     1.442000000     6.080000000
O     2.662000000     4.951000000     5.244000000
H     1.955000000     4.334000000     5.052000000
H     2.235000000     5.807000000     5.258000000
O     3.226000000     5.763000000     7.815000000
H     3.356000000     4.895000000     7.432000000
H     3.238000000     6.359000000     7.066000000
O     5.171000000    -0.581000000     5.983000000
H     5.029000000    -0.650000000     6.927000000
H     4.945000000    -1.447000000     5.643000000
O     5.370000000     1.740000000     1.485000000
H     5.215000000     2.683000000     1.432000000
H     4.553000000     1.345000000     1.179000000
O    -0.389000000     3.064000000     6.829000000
H    -0.056000000     3.052000000     5.931000000
H    -0.662000000     3.971000000     6.971000000
O     0.034000000     5.930000000     4.356000000
H     0.150000000     4.981000000     4.305000000
H    -0.904000000     6.049000000     4.504000000
O     1.531000000     7.521000000     2.785000000
H     0.991000000     7.154000000     3.485000000
H     0.942000000     8.104000000     2.308000000
O    -1.512000000     5.856000000     7.422000000
H    -2.463000000     5.753000000     7.447000000
H    -1.367000000     6.597000000     6.834000000
O     4.906000000     2.303000000     5.256000000
H     5.088000000     1.423000000     4.926000000
H     3.999000000     2.471000000     5.001000000
O     5.878000000     4.751000000     2.204000000
H     6.107000000     5.225000000     1.405000000
H     4.924000000     4.811000000     2.252000000
O     5.415000000     5.704000000     5.306000000
H     5.208000000     6.615000000     5.099000000
H     4.563000000     5.270000000     5.357000000
O     1.791000000     7.598000000     5.938000000
H     1.615000000     8.451000000     6.337000000
H     0.930000000     7.278000000     5.668000000
O     4.070000000     2.541000000     7.898000000
H     3.196000000     2.153000000     7.846000000
H     4.449000000     2.396000000     7.031000000
O     3.514000000     3.499000000     0.337000000
H     2.933000000     3.946000000    -0.279000000
H     3.295000000     3.876000000     1.189000000
O    -1.326000000     1.599000000     9.153000000
H    -1.117000000     1.997000000     8.308000000
H    -0.481000000     1.525000000     9.598000000
