218
-1455.09720
C     1.450000000    -3.235000000     3.794000000
H     1.963000000    -3.516000000     2.878000000
C     0.044000000    -3.106000000     3.753000000
C    -0.607000000    -2.553000000     4.882000000
H    -1.693000000    -2.539000000     4.922000000
C    -0.775000000    -3.513000000     2.577000000
O    -0.081000000    -4.662000000     1.975000000
H    -0.783000000    -2.690000000     1.848000000
O    -2.118000000    -3.826000000     2.839000000
C    -2.976000000    -3.271000000     1.967000000
C    -3.438000000    -2.068000000     2.423000000
H    -3.107000000    -1.651000000     3.371000000
C    -4.302000000    -1.418000000     1.555000000
O    -4.591000000    -0.051000000     1.902000000
C    -4.686000000    -1.969000000     0.310000000
C    -5.381000000    -1.144000000    -0.759000000
H    -6.085000000    -1.706000000    -1.376000000
C    -4.462000000    -0.258000000    -1.591000000
C    -3.944000000    -0.800000000    -2.748000000
H    -4.200000000    -1.778000000    -3.149000000
H    -6.052000000    -0.495000000    -0.193000000
C    -4.228000000    -3.211000000    -0.043000000
H    -4.495000000    -3.640000000    -1.005000000
C    -3.256000000    -3.843000000     0.732000000
C    -2.488000000    -5.077000000     0.265000000
H    -3.008000000    -5.605000000    -0.537000000
H    -2.351000000    -5.824000000     1.050000000
C    -1.022000000    -4.809000000    -0.248000000
C    -0.919000000    -4.723000000    -1.632000000
H    -1.793000000    -4.816000000    -2.272000000
C     0.049000000    -4.728000000     0.590000000
C     1.279000000    -4.392000000    -0.020000000
H     2.095000000    -4.097000000     0.634000000
C     1.428000000    -4.195000000    -1.370000000
O     2.629000000    -3.748000000    -1.865000000
C     2.711000000    -2.397000000    -2.389000000
C     3.904000000    -1.627000000    -1.873000000
C     4.566000000    -0.723000000    -2.704000000
H     4.207000000    -0.460000000    -3.696000000
C     4.364000000    -1.822000000    -0.571000000
H     3.816000000    -2.566000000     0.002000000
O     2.530000000    -2.312000000    -3.779000000
H     1.844000000    -1.851000000    -1.987000000
C     0.297000000    -4.303000000    -2.211000000
C     0.363000000    -4.217000000    -3.721000000
H    -0.308000000    -4.873000000    -4.279000000
H     1.329000000    -4.565000000    -4.092000000
C     0.234000000    -2.696000000    -4.167000000
C    -0.986000000    -2.156000000    -4.301000000
H    -1.850000000    -2.792000000    -4.127000000
C     1.362000000    -1.874000000    -4.286000000
C     1.197000000    -0.526000000    -4.519000000
H     2.053000000     0.136000000    -4.418000000
C    -0.064000000    -0.012000000    -4.623000000
O    -0.099000000     1.345000000    -4.892000000
C    -0.587000000     2.001000000    -3.681000000
C     0.206000000     3.295000000    -3.393000000
C     1.553000000     3.379000000    -3.869000000
H     1.979000000     2.638000000    -4.541000000
C    -0.267000000     4.274000000    -2.505000000
H    -1.281000000     4.214000000    -2.118000000
O    -2.032000000     2.188000000    -3.749000000
H    -0.442000000     1.339000000    -2.814000000
C    -1.158000000    -0.858000000    -4.560000000
C    -2.573000000    -0.280000000    -4.762000000
H    -3.274000000    -1.031000000    -5.133000000
H    -2.528000000     0.595000000    -5.414000000
C    -3.129000000     0.089000000    -3.458000000
C    -2.874000000     1.376000000    -3.088000000
C    -3.441000000     1.922000000    -1.951000000
H    -3.223000000     2.955000000    -1.695000000
C    -4.120000000     1.021000000    -1.127000000
O    -4.415000000     1.508000000     0.134000000
C    -3.763000000     0.956000000     1.266000000
H    -2.836000000     0.447000000     0.963000000
C    -3.420000000     2.020000000     2.285000000
C    -2.893000000     1.763000000     3.588000000
H    -2.817000000     0.728000000     3.912000000
C    -3.553000000     3.390000000     1.875000000
H    -3.948000000     3.619000000     0.888000000
C    -3.088000000     4.497000000     2.660000000
O    -2.993000000     5.859000000     2.303000000
C    -2.548000000     4.112000000     3.919000000
H    -2.130000000     4.877000000     4.569000000
C    -2.530000000     2.804000000     4.407000000
O    -2.086000000     2.632000000     5.698000000
C    -2.279000000     1.500000000     6.395000000
C    -1.300000000     0.515000000     6.230000000
H    -0.562000000     0.521000000     5.432000000
C    -3.272000000     1.418000000     7.336000000
H    -3.996000000     2.228000000     7.297000000
C    -3.297000000     0.373000000     8.213000000
H    -3.923000000     0.414000000     9.101000000
C    -2.348000000    -0.626000000     8.051000000
H    -2.371000000    -1.462000000     8.746000000
C    -1.374000000    -0.608000000     7.034000000
O    -0.476000000    -1.590000000     7.090000000
C     0.151000000    -2.122000000     6.008000000
C     1.499000000    -2.249000000     6.024000000
H     2.104000000    -2.061000000     6.907000000
C     2.140000000    -2.816000000     4.911000000
O     3.545000000    -2.999000000     5.016000000
C     4.306000000    -3.175000000     3.906000000
C     4.694000000    -2.121000000     3.086000000
H     4.505000000    -1.071000000     3.294000000
C     4.724000000    -4.446000000     3.645000000
H     4.456000000    -5.297000000     4.267000000
C     5.493000000    -4.706000000     2.510000000
H     5.773000000    -5.690000000     2.142000000
C     5.890000000    -3.690000000     1.662000000
H     6.467000000    -4.002000000     0.795000000
C     5.564000000    -2.351000000     2.005000000
O     5.841000000    -1.268000000     1.226000000
C     5.450000000    -1.104000000    -0.121000000
C     6.119000000    -0.226000000    -0.991000000
H     6.975000000     0.375000000    -0.697000000
C     5.663000000     0.003000000    -2.242000000
O     6.373000000     0.916000000    -3.109000000
C     5.784000000     1.774000000    -4.013000000
C     5.043000000     2.822000000    -3.549000000
H     4.870000000     3.002000000    -2.491000000
C     5.882000000     1.633000000    -5.347000000
H     6.580000000     0.862000000    -5.666000000
C     5.162000000     2.433000000    -6.245000000
H     5.217000000     2.255000000    -7.316000000
C     4.445000000     3.522000000    -5.773000000
H     3.964000000     4.254000000    -6.417000000
C     4.388000000     3.687000000    -4.403000000
O     3.671000000     4.690000000    -3.904000000
C     2.374000000     4.462000000    -3.519000000
C     1.921000000     5.354000000    -2.583000000
H     2.601000000     6.133000000    -2.250000000
C     0.599000000     5.325000000    -2.114000000
O     0.216000000     6.386000000    -1.346000000
C    -1.071000000     6.510000000    -0.795000000
C    -1.928000000     7.343000000    -1.512000000
H    -1.638000000     7.826000000    -2.442000000
C    -3.187000000     7.616000000    -0.952000000
H    -3.944000000     8.039000000    -1.608000000
C    -3.574000000     7.163000000     0.290000000
H    -4.594000000     7.260000000     0.655000000
C    -2.667000000     6.340000000     1.052000000
C    -1.398000000     6.045000000     0.499000000
H    -0.656000000     5.544000000     1.116000000
C     0.032000000     2.235000000     1.253000000
H    -0.362000000     3.247000000     1.299000000
C    -0.423000000     1.388000000     0.303000000
H    -1.279000000     1.791000000    -0.232000000
C    -0.029000000     0.049000000     0.259000000
C    -0.561000000    -0.902000000    -0.762000000
H    -0.122000000    -1.894000000    -0.639000000
H    -1.632000000    -1.028000000    -0.587000000
H    -0.370000000    -0.522000000    -1.768000000
C     0.865000000    -0.441000000     1.300000000
H     1.148000000    -1.491000000     1.287000000
C     1.346000000     0.408000000     2.264000000
H     2.031000000    -0.007000000     2.999000000
C     0.913000000     1.742000000     2.264000000
C     1.488000000     2.685000000     3.337000000
O     2.327000000     2.288000000     4.068000000
O     1.349000000     3.915000000     3.263000000
O    -0.225000000     7.557000000     3.920000000
H     0.282000000     8.242000000     4.355000000
H    -1.023000000     7.480000000     4.443000000
O     5.229000000     5.357000000     5.237000000
H     4.674000000     4.921000000     4.590000000
H     5.539000000     6.147000000     4.794000000
O     2.180000000    -0.018000000     8.245000000
H     2.393000000     0.765000000     7.737000000
H     2.982000000    -0.540000000     8.229000000
O     1.565000000     6.280000000     1.864000000
H     1.305000000     5.400000000     2.139000000
H     0.955000000     6.862000000     2.317000000
O     3.847000000     4.799000000     2.972000000
H     3.969000000     4.873000000     2.025000000
H     2.960000000     4.452000000     3.072000000
O     2.576000000     2.182000000     6.646000000
H     2.312000000     2.382000000     5.747000000
H     2.390000000     2.983000000     7.134000000
O     4.837000000     1.420000000     3.432000000
H     3.992000000     1.869000000     3.453000000
H     5.224000000     1.676000000     2.595000000
O     2.328000000     4.660000000     7.856000000
H     1.913000000     4.994000000     7.061000000
H     1.638000000     4.162000000     8.295000000
O     1.166000000     5.397000000     5.613000000
H     1.094000000     4.593000000     5.099000000
H     1.071000000     6.101000000     4.971000000
O     0.437000000     2.442000000     8.702000000
H     0.537000000     1.504000000     8.540000000
H    -0.278000000     2.501000000     9.336000000
O     3.001000000     7.447000000    -0.214000000
H     2.355000000     8.030000000    -0.615000000
H     2.551000000     7.080000000     0.547000000
O    -1.804000000     4.984000000     7.897000000
H    -1.157000000     5.587000000     8.265000000
H    -1.313000000     4.464000000     7.262000000
O     4.507000000     4.614000000    -0.266000000
H     4.956000000     5.222000000    -0.854000000
H     3.632000000     4.988000000    -0.159000000
O     4.054000000     7.373000000     7.527000000
H     3.847000000     6.624000000     6.968000000
H     4.694000000     7.877000000     7.025000000
O     4.999000000     4.153000000     7.683000000
H     5.017000000     4.493000000     6.789000000
H     4.072000000     4.148000000     7.919000000
O     4.912000000     0.861000000     5.970000000
H     4.677000000     1.233000000     5.121000000
H     4.115000000     0.939000000     6.495000000
O    -2.098000000     7.029000000     5.914000000
H    -2.184000000     6.127000000     6.224000000
H    -2.242000000     7.564000000     6.694000000
O     6.387000000     3.006000000     1.088000000
H     5.789000000     3.679000000     1.411000000
H     6.140000000     2.886000000     0.171000000
O     7.211000000     3.098000000     4.289000000
H     6.375000000     2.634000000     4.243000000
H     7.587000000     2.832000000     5.128000000
