218
-1460.21931
C     1.048000000    -3.351000000     3.737000000
H     1.715000000    -3.681000000     2.944000000
C    -0.368000000    -3.306000000     3.614000000
C    -1.143000000    -2.946000000     4.758000000
H    -2.229000000    -2.983000000     4.766000000
C    -0.979000000    -3.572000000     2.280000000
O    -0.336000000    -4.647000000     1.697000000
H    -0.837000000    -2.653000000     1.693000000
O    -2.415000000    -3.838000000     2.350000000
C    -3.230000000    -3.308000000     1.403000000
C    -3.750000000    -2.082000000     1.802000000
H    -3.521000000    -1.646000000     2.770000000
C    -4.463000000    -1.327000000     0.852000000
O    -4.865000000    -0.073000000     1.225000000
C    -4.599000000    -1.737000000    -0.504000000
C    -5.296000000    -0.831000000    -1.421000000
H    -5.571000000    -1.531000000    -2.213000000
C    -4.404000000     0.157000000    -2.183000000
C    -3.702000000    -0.205000000    -3.333000000
H    -3.888000000    -1.127000000    -3.879000000
H    -6.256000000    -0.460000000    -1.057000000
C    -4.077000000    -3.001000000    -0.872000000
H    -4.172000000    -3.363000000    -1.893000000
C    -3.335000000    -3.707000000     0.091000000
C    -2.700000000    -5.016000000    -0.308000000
H    -3.285000000    -5.438000000    -1.128000000
H    -2.702000000    -5.595000000     0.618000000
C    -1.255000000    -4.724000000    -0.610000000
C    -1.005000000    -4.508000000    -1.965000000
H    -1.835000000    -4.693000000    -2.643000000
C    -0.179000000    -4.646000000     0.332000000
C     1.059000000    -4.308000000    -0.119000000
H     1.929000000    -4.361000000     0.530000000
C     1.265000000    -3.938000000    -1.479000000
O     2.582000000    -3.638000000    -1.874000000
C     2.842000000    -2.257000000    -2.370000000
C     4.066000000    -1.665000000    -1.690000000
C     4.735000000    -0.609000000    -2.218000000
H     4.307000000    -0.192000000    -3.126000000
C     4.546000000    -2.328000000    -0.524000000
H     3.998000000    -3.175000000    -0.118000000
O     2.843000000    -2.152000000    -3.816000000
H     2.113000000    -1.511000000    -2.020000000
C     0.220000000    -4.079000000    -2.417000000
C     0.506000000    -3.900000000    -3.873000000
H    -0.335000000    -4.444000000    -4.309000000
H     1.440000000    -4.421000000    -4.096000000
C     0.499000000    -2.392000000    -4.287000000
C    -0.714000000    -1.791000000    -4.732000000
H    -1.669000000    -2.310000000    -4.744000000
C     1.648000000    -1.633000000    -4.277000000
C     1.635000000    -0.277000000    -4.451000000
H     2.562000000     0.265000000    -4.282000000
C     0.428000000     0.349000000    -4.741000000
O     0.421000000     1.749000000    -4.665000000
C    -0.153000000     2.215000000    -3.442000000
C     0.703000000     3.334000000    -2.955000000
C     2.016000000     3.532000000    -3.435000000
H     2.491000000     2.818000000    -4.103000000
C     0.199000000     4.088000000    -1.903000000
H    -0.753000000     3.886000000    -1.418000000
O    -1.469000000     2.644000000    -3.574000000
H    -0.005000000     1.458000000    -2.657000000
C    -0.787000000    -0.420000000    -4.858000000
C    -2.113000000     0.203000000    -5.167000000
H    -2.752000000    -0.538000000    -5.652000000
H    -2.009000000     1.049000000    -5.849000000
C    -2.791000000     0.654000000    -3.881000000
C    -2.491000000     1.832000000    -3.198000000
C    -3.147000000     2.232000000    -2.064000000
H    -2.816000000     3.098000000    -1.497000000
C    -4.131000000     1.385000000    -1.592000000
O    -4.811000000     1.731000000    -0.447000000
C    -4.240000000     1.118000000     0.756000000
H    -3.244000000     0.811000000     0.403000000
C    -3.959000000     2.159000000     1.864000000
C    -3.454000000     1.730000000     3.094000000
H    -3.362000000     0.682000000     3.368000000
C    -4.052000000     3.500000000     1.552000000
H    -4.199000000     3.869000000     0.540000000
C    -3.668000000     4.403000000     2.512000000
O    -3.637000000     5.688000000     2.185000000
C    -3.068000000     4.010000000     3.710000000
H    -2.715000000     4.779000000     4.393000000
C    -3.035000000     2.661000000     4.018000000
O    -2.560000000     2.285000000     5.253000000
C    -2.946000000     1.200000000     5.916000000
C    -2.002000000     0.199000000     6.007000000
H    -1.063000000     0.336000000     5.477000000
C    -4.155000000     1.073000000     6.629000000
H    -4.883000000     1.879000000     6.589000000
C    -4.419000000    -0.094000000     7.322000000
H    -5.335000000    -0.282000000     7.875000000
C    -3.461000000    -1.142000000     7.396000000
H    -3.534000000    -2.061000000     7.972000000
C    -2.224000000    -0.949000000     6.761000000
O    -1.213000000    -1.849000000     6.868000000
C    -0.461000000    -2.341000000     5.834000000
C     0.890000000    -2.284000000     5.874000000
H     1.286000000    -1.731000000     6.722000000
C     1.695000000    -2.836000000     4.894000000
O     3.004000000    -2.622000000     5.038000000
C     3.897000000    -3.231000000     4.176000000
C     4.608000000    -2.429000000     3.278000000
H     4.443000000    -1.364000000     3.421000000
C     4.087000000    -4.645000000     4.189000000
H     3.526000000    -5.347000000     4.800000000
C     5.037000000    -5.154000000     3.275000000
H     5.255000000    -6.218000000     3.220000000
C     5.564000000    -4.366000000     2.257000000
H     6.274000000    -4.730000000     1.520000000
C     5.393000000    -3.046000000     2.302000000
O     6.146000000    -2.277000000     1.375000000
C     5.685000000    -1.844000000     0.123000000
C     6.396000000    -0.798000000    -0.527000000
H     7.320000000    -0.487000000    -0.045000000
C     5.968000000    -0.171000000    -1.625000000
O     6.839000000     0.827000000    -2.109000000
C     6.442000000     1.841000000    -2.967000000
C     5.326000000     2.678000000    -2.607000000
H     4.874000000     2.590000000    -1.622000000
C     7.183000000     2.012000000    -4.138000000
H     8.030000000     1.383000000    -4.401000000
C     6.832000000     3.069000000    -4.944000000
H     7.422000000     3.200000000    -5.847000000
C     5.826000000     3.944000000    -4.609000000
H     5.553000000     4.768000000    -5.264000000
C     5.031000000     3.727000000    -3.494000000
O     4.147000000     4.751000000    -3.288000000
C     2.844000000     4.589000000    -2.858000000
C     2.242000000     5.379000000    -1.796000000
H     2.796000000     6.157000000    -1.277000000
C     0.939000000     5.128000000    -1.370000000
O     0.516000000     5.876000000    -0.268000000
C    -0.842000000     6.154000000    -0.205000000
C    -1.500000000     6.983000000    -1.107000000
H    -0.932000000     7.316000000    -1.972000000
C    -2.786000000     7.437000000    -0.949000000
H    -3.256000000     8.204000000    -1.559000000
C    -3.463000000     7.040000000     0.218000000
H    -4.475000000     7.384000000     0.415000000
C    -2.937000000     6.093000000     1.071000000
C    -1.575000000     5.764000000     0.975000000
H    -1.073000000     5.343000000     1.843000000
C    -0.057000000     2.054000000     1.513000000
H    -0.268000000     3.120000000     1.556000000
C    -0.699000000     1.359000000     0.483000000
H    -1.363000000     1.931000000    -0.161000000
C    -0.300000000     0.062000000     0.172000000
C    -0.822000000    -0.776000000    -0.948000000
H    -0.835000000    -1.854000000    -0.773000000
H    -1.888000000    -0.566000000    -1.055000000
H    -0.241000000    -0.622000000    -1.860000000
C     0.702000000    -0.579000000     0.923000000
H     1.061000000    -1.602000000     0.849000000
C     1.286000000     0.137000000     2.031000000
H     1.948000000    -0.418000000     2.690000000
C     1.019000000     1.507000000     2.191000000
C     1.753000000     2.274000000     3.289000000
O     2.601000000     1.689000000     3.964000000
O     1.443000000     3.400000000     3.597000000
O     6.339000000     5.099000000     3.911000000
H     6.674000000     5.908000000     4.297000000
H     5.439000000     5.035000000     4.230000000
O    -0.844000000     8.034000000     3.242000000
H    -1.310000000     8.831000000     3.493000000
H    -0.346000000     8.282000000     2.463000000
O     4.522000000     2.901000000     8.833000000
H     5.150000000     2.182000000     8.765000000
H     3.690000000     2.520000000     8.552000000
O     4.238000000     4.349000000     1.221000000
H     3.487000000     4.132000000     1.774000000
H     4.685000000     3.514000000     1.086000000
O     0.741000000     7.020000000     5.293000000
H     0.676000000     6.068000000     5.214000000
H     0.189000000     7.357000000     4.588000000
O     3.814000000     4.319000000     4.437000000
H     3.040000000     4.524000000     3.912000000
H     3.719000000     3.392000000     4.653000000
O     2.724000000     1.301000000     6.695000000
H     2.692000000     1.347000000     5.739000000
H     2.470000000     2.176000000     6.986000000
O     5.107000000     0.970000000     4.376000000
H     4.174000000     1.155000000     4.267000000
H     5.482000000     1.800000000     4.673000000
O     1.661000000     3.257000000     7.833000000
H     1.377000000     3.729000000     7.050000000
H     0.851000000     3.069000000     8.306000000
O     0.028000000     4.454000000     5.517000000
H     0.671000000     4.008000000     4.965000000
H    -0.670000000     3.810000000     5.639000000
O     2.200000000     7.804000000     0.699000000
H     1.882000000     6.935000000     0.451000000
H     1.408000000     8.297000000     0.911000000
O    -0.643000000     6.978000000     7.556000000
H    -1.168000000     7.767000000     7.691000000
H    -0.212000000     7.118000000     6.713000000
O     6.594000000     2.938000000     5.938000000
H     6.546000000     3.838000000     5.614000000
H     6.407000000     3.010000000     6.874000000
O     6.670000000     6.060000000     1.011000000
H     6.677000000     6.371000000     0.106000000
H     5.904000000     5.489000000     1.063000000
O     3.085000000     6.362000000     6.467000000
H     3.448000000     5.740000000     5.837000000
H     2.255000000     6.639000000     6.078000000
O     4.504000000     7.486000000     2.314000000
H     5.351000000     7.201000000     1.970000000
H     3.903000000     7.398000000     1.574000000
O     5.178000000    -0.215000000     6.876000000
H     5.296000000     0.118000000     5.987000000
H     4.247000000    -0.091000000     7.057000000
O     5.950000000     2.169000000     1.053000000
H     6.810000000     2.390000000     0.697000000
H     6.140000000     1.693000000     1.862000000
O     3.524000000     5.578000000     9.040000000
H     2.977000000     5.698000000     8.264000000
H     3.627000000     4.629000000     9.115000000
