218
-1469.19503
C    -4.468000000     0.216000000    -1.888000000
H    -3.609000000     0.598000000    -2.433000000
C    -4.767000000     0.677000000    -0.614000000
C    -5.615000000    -0.028000000     0.181000000
H    -5.975000000     0.347000000     1.135000000
C    -3.895000000     1.794000000    -0.046000000
O    -3.942000000     2.927000000    -0.989000000
H    -2.885000000     1.359000000    -0.012000000
O    -4.367000000     2.240000000     1.268000000
C    -3.415000000     2.376000000     2.226000000
C    -3.167000000     1.367000000     3.117000000
H    -3.771000000     0.466000000     3.183000000
C    -2.074000000     1.436000000     4.017000000
O    -1.638000000     0.387000000     4.733000000
C    -1.310000000     2.592000000     4.073000000
C    -0.106000000     2.658000000     4.988000000
H     0.087000000     3.710000000     5.208000000
C     1.170000000     2.053000000     4.417000000
C     2.041000000     2.834000000     3.601000000
H     1.866000000     3.875000000     3.339000000
H    -0.300000000     2.159000000     5.940000000
C    -1.647000000     3.623000000     3.163000000
H    -1.111000000     4.569000000     3.180000000
C    -2.628000000     3.503000000     2.197000000
C    -2.959000000     4.653000000     1.210000000
H    -2.629000000     5.589000000     1.666000000
H    -4.029000000     4.570000000     1.011000000
C    -2.286000000     4.421000000    -0.137000000
C    -0.990000000     4.983000000    -0.402000000
H    -0.428000000     5.459000000     0.398000000
C    -2.780000000     3.612000000    -1.096000000
C    -2.032000000     3.277000000    -2.275000000
H    -2.468000000     2.670000000    -3.065000000
C    -0.761000000     3.784000000    -2.483000000
O    -0.146000000     3.389000000    -3.623000000
C     0.870000000     2.366000000    -3.353000000
C     0.902000000     1.345000000    -4.470000000
C     2.052000000     0.596000000    -4.805000000
H     2.950000000     0.839000000    -4.242000000
C    -0.276000000     1.063000000    -5.210000000
H    -1.151000000     1.581000000    -4.827000000
O     2.158000000     3.008000000    -3.200000000
H     0.576000000     1.822000000    -2.443000000
C    -0.204000000     4.678000000    -1.552000000
C     1.221000000     5.176000000    -1.689000000
H     1.470000000     6.144000000    -1.248000000
H     1.411000000     5.312000000    -2.755000000
C     2.216000000     4.166000000    -1.125000000
C     2.657000000     4.197000000     0.213000000
H     2.350000000     5.055000000     0.806000000
C     2.629000000     3.193000000    -1.974000000
C     3.513000000     2.280000000    -1.514000000
H     3.958000000     1.550000000    -2.184000000
C     3.923000000     2.281000000    -0.226000000
O     4.719000000     1.270000000     0.221000000
C     4.066000000     0.171000000     0.883000000
C     4.542000000    -1.121000000     0.334000000
C     5.185000000    -1.258000000    -0.934000000
H     5.231000000    -0.392000000    -1.589000000
C     4.370000000    -2.287000000     1.080000000
H     3.855000000    -2.199000000     2.033000000
O     4.380000000     0.312000000     2.271000000
H     2.972000000     0.277000000     0.836000000
C     3.548000000     3.255000000     0.658000000
C     4.017000000     3.217000000     2.081000000
H     3.990000000     4.269000000     2.373000000
H     5.059000000     2.892000000     2.120000000
C     3.196000000     2.298000000     3.020000000
C     3.465000000     0.916000000     3.101000000
C     2.599000000     0.113000000     3.840000000
H     2.799000000    -0.954000000     3.792000000
C     1.490000000     0.678000000     4.477000000
O     0.620000000    -0.196000000     4.967000000
C    -0.591000000    -0.385000000     4.173000000
H    -0.574000000    -0.137000000     3.101000000
C    -0.986000000    -1.883000000     4.209000000
C    -2.298000000    -2.301000000     3.991000000
H    -3.038000000    -1.510000000     3.898000000
C     0.053000000    -2.879000000     4.235000000
H     1.106000000    -2.672000000     4.413000000
C    -0.267000000    -4.268000000     4.108000000
O     0.606000000    -5.300000000     3.983000000
C    -1.579000000    -4.572000000     3.834000000
H    -1.842000000    -5.607000000     3.628000000
C    -2.610000000    -3.646000000     3.786000000
O    -3.842000000    -4.132000000     3.710000000
C    -4.998000000    -3.474000000     3.466000000
C    -5.357000000    -3.131000000     2.126000000
H    -4.758000000    -3.522000000     1.308000000
C    -5.954000000    -3.265000000     4.464000000
H    -5.714000000    -3.569000000     5.479000000
C    -7.208000000    -2.713000000     4.160000000
H    -7.979000000    -2.484000000     4.892000000
C    -7.442000000    -2.261000000     2.852000000
H    -8.366000000    -1.745000000     2.604000000
C    -6.516000000    -2.440000000     1.845000000
O    -6.883000000    -1.997000000     0.587000000
C    -6.225000000    -1.197000000    -0.300000000
C    -5.982000000    -1.627000000    -1.606000000
H    -6.543000000    -2.520000000    -1.868000000
C    -5.114000000    -0.931000000    -2.401000000
O    -4.807000000    -1.480000000    -3.603000000
C    -4.398000000    -0.697000000    -4.671000000
C    -3.128000000    -0.893000000    -5.208000000
H    -2.468000000    -1.611000000    -4.729000000
C    -5.270000000     0.163000000    -5.312000000
H    -6.248000000     0.311000000    -4.862000000
C    -4.837000000     0.996000000    -6.303000000
H    -5.497000000     1.773000000    -6.682000000
C    -3.585000000     0.884000000    -6.822000000
H    -3.237000000     1.547000000    -7.610000000
C    -2.707000000    -0.088000000    -6.281000000
O    -1.484000000    -0.146000000    -6.794000000
C    -0.271000000     0.085000000    -6.152000000
C     0.844000000    -0.661000000    -6.414000000
H     0.843000000    -1.467000000    -7.144000000
C     2.013000000    -0.408000000    -5.754000000
O     3.066000000    -1.287000000    -5.994000000
C     4.293000000    -1.152000000    -5.428000000
C     4.648000000    -1.885000000    -4.210000000
H     3.868000000    -2.591000000    -3.936000000
C     5.290000000    -0.418000000    -6.074000000
H     5.067000000     0.086000000    -7.011000000
C     6.570000000    -0.387000000    -5.577000000
H     7.378000000     0.102000000    -6.115000000
C     6.893000000    -1.127000000    -4.415000000
H     7.910000000    -0.988000000    -4.057000000
C     5.941000000    -1.873000000    -3.716000000
O     6.309000000    -2.654000000    -2.580000000
C     5.702000000    -2.512000000    -1.337000000
C     5.666000000    -3.588000000    -0.460000000
H     6.124000000    -4.542000000    -0.706000000
C     4.910000000    -3.508000000     0.695000000
O     4.751000000    -4.602000000     1.520000000
C     4.009000000    -4.714000000     2.670000000
C     4.693000000    -4.871000000     3.873000000
H     5.770000000    -4.773000000     3.763000000
C     4.041000000    -5.333000000     4.969000000
H     4.637000000    -5.551000000     5.851000000
C     2.671000000    -5.396000000     4.978000000
H     2.133000000    -5.716000000     5.867000000
C     1.923000000    -5.155000000     3.809000000
C     2.587000000    -4.852000000     2.589000000
H     1.936000000    -4.862000000     1.718000000
C     1.060000000    -2.170000000    -0.125000000
H     1.718000000    -2.889000000     0.357000000
C     0.745000000    -0.939000000     0.466000000
H     1.049000000    -0.832000000     1.505000000
C     0.093000000    -0.003000000    -0.300000000
C    -0.049000000     1.385000000     0.340000000
H    -0.186000000     2.277000000    -0.275000000
H    -0.924000000     1.287000000     0.986000000
H     0.898000000     1.573000000     0.849000000
C    -0.451000000    -0.325000000    -1.544000000
H    -1.049000000     0.397000000    -2.094000000
C    -0.139000000    -1.568000000    -2.144000000
H    -0.522000000    -1.747000000    -3.145000000
C     0.665000000    -2.473000000    -1.458000000
C     1.117000000    -3.759000000    -2.066000000
O     0.607000000    -4.138000000    -3.084000000
O     2.005000000    -4.429000000    -1.569000000
O    -0.401000000    -6.264000000    -4.173000000
H    -0.103000000    -5.450000000    -3.766000000
H    -0.636000000    -6.828000000    -3.436000000
O     2.620000000    -7.152000000    -6.966000000
H     2.356000000    -6.268000000    -6.712000000
H     1.797000000    -7.597000000    -7.172000000
O     1.397000000    -8.221000000    -4.422000000
H     0.929000000    -7.396000000    -4.293000000
H     2.190000000    -7.975000000    -4.898000000
O    -4.703000000    -4.038000000    -3.649000000
H    -4.778000000    -3.144000000    -3.982000000
H    -3.783000000    -4.125000000    -3.400000000
O     3.331000000    -5.966000000    -3.391000000
H     2.757000000    -5.512000000    -2.773000000
H     3.665000000    -6.717000000    -2.900000000
O     2.314000000    -3.580000000    -9.193000000
H     2.448000000    -3.964000000    -8.326000000
H     1.839000000    -4.252000000    -9.681000000
O     5.688000000    -4.910000000    -4.512000000
H     4.888000000    -4.826000000    -3.992000000
H     5.477000000    -5.573000000    -5.169000000
O    -1.615000000    -7.938000000    -2.433000000
H    -2.521000000    -8.239000000    -2.514000000
H    -1.528000000    -7.689000000    -1.513000000
O    -1.277000000    -9.321000000    -4.724000000
H    -0.799000000    -8.850000000    -5.406000000
H    -1.054000000    -8.862000000    -3.914000000
O    -2.918000000    -6.014000000    -5.663000000
H    -2.349000000    -6.066000000    -4.895000000
H    -2.334000000    -5.764000000    -6.378000000
O     5.388000000    -3.860000000    -6.976000000
H     5.432000000    -4.127000000    -6.058000000
H     5.083000000    -2.954000000    -6.948000000
O     2.132000000    -4.659000000    -5.794000000
H     1.482000000    -4.129000000    -5.333000000
H     2.653000000    -5.059000000    -5.098000000
O    -4.684000000    -5.957000000    -0.083000000
H    -4.734000000    -6.734000000    -0.639000000
H    -4.403000000    -5.258000000    -0.673000000
O     3.626000000    -8.676000000    -1.809000000
H     2.763000000    -8.383000000    -1.516000000
H     4.233000000    -8.024000000    -1.459000000
O     7.089000000    -7.076000000    -3.089000000
H     7.313000000    -7.748000000    -3.733000000
H     6.743000000    -6.351000000    -3.610000000
O    -0.488000000    -7.411000000     0.145000000
H     0.233000000    -6.911000000    -0.238000000
H    -0.063000000    -8.147000000     0.585000000
O     2.503000000    -6.668000000    -0.202000000
H     2.349000000    -5.811000000    -0.600000000
H     2.864000000    -6.470000000     0.662000000
O    -2.421000000    -4.073000000    -2.468000000
H    -2.481000000    -4.037000000    -1.513000000
H    -1.502000000    -3.882000000    -2.657000000
O    -2.329000000    -4.129000000     0.163000000
H    -2.498000000    -4.839000000     0.782000000
H    -1.646000000    -3.605000000     0.581000000
