218
-1458.10620
C    -4.980000000     1.587000000    -2.028000000
H    -4.521000000     2.336000000    -2.667000000
C    -4.689000000     1.576000000    -0.697000000
C    -5.291000000     0.618000000     0.190000000
H    -5.120000000     0.698000000     1.260000000
C    -3.581000000     2.568000000    -0.218000000
O    -3.360000000     3.658000000    -1.131000000
H    -2.641000000     2.010000000    -0.089000000
O    -3.925000000     3.103000000     1.073000000
C    -2.838000000     3.123000000     1.923000000
C    -2.829000000     2.103000000     2.833000000
H    -3.582000000     1.319000000     2.806000000
C    -1.777000000     1.992000000     3.715000000
O    -1.617000000     0.812000000     4.357000000
C    -0.686000000     2.855000000     3.715000000
C     0.456000000     2.773000000     4.787000000
H     0.787000000     3.800000000     4.953000000
C     1.635000000     1.928000000     4.315000000
C     2.567000000     2.558000000     3.553000000
H     2.529000000     3.618000000     3.317000000
H    -0.037000000     2.306000000     5.642000000
C    -0.712000000     3.948000000     2.827000000
H     0.099000000     4.667000000     2.911000000
C    -1.812000000     4.080000000     1.989000000
C    -1.832000000     5.224000000     0.962000000
H    -1.268000000     6.121000000     1.228000000
H    -2.890000000     5.489000000     0.927000000
C    -1.341000000     4.800000000    -0.412000000
C     0.042000000     5.063000000    -0.796000000
H     0.592000000     5.641000000    -0.057000000
C    -2.112000000     4.061000000    -1.330000000
C    -1.489000000     3.457000000    -2.469000000
H    -2.102000000     2.751000000    -3.024000000
C    -0.124000000     3.639000000    -2.734000000
O     0.465000000     2.887000000    -3.714000000
C     1.288000000     1.775000000    -3.359000000
C     0.925000000     0.645000000    -4.311000000
C     1.985000000    -0.181000000    -4.716000000
H     2.993000000     0.216000000    -4.623000000
C    -0.379000000     0.294000000    -4.570000000
H    -1.164000000     0.908000000    -4.136000000
O     2.690000000     2.156000000    -3.464000000
H     1.028000000     1.375000000    -2.367000000
C     0.673000000     4.523000000    -1.956000000
C     2.167000000     4.699000000    -2.111000000
H     2.369000000     5.685000000    -1.687000000
H     2.548000000     4.690000000    -3.134000000
C     2.981000000     3.661000000    -1.438000000
C     3.554000000     3.799000000    -0.102000000
H     3.268000000     4.641000000     0.523000000
C     3.293000000     2.482000000    -2.204000000
C     3.991000000     1.460000000    -1.649000000
H     4.255000000     0.605000000    -2.267000000
C     4.340000000     1.446000000    -0.344000000
O     4.975000000     0.399000000     0.251000000
C     4.242000000    -0.634000000     0.970000000
C     4.596000000    -2.030000000     0.548000000
C     5.215000000    -2.224000000    -0.631000000
H     5.484000000    -1.452000000    -1.346000000
C     3.976000000    -3.077000000     1.210000000
H     3.494000000    -2.823000000     2.151000000
O     4.439000000    -0.368000000     2.354000000
H     3.172000000    -0.487000000     0.763000000
C     4.115000000     2.636000000     0.414000000
C     4.521000000     2.653000000     1.954000000
H     4.557000000     3.638000000     2.425000000
H     5.476000000     2.131000000     2.039000000
C     3.577000000     1.862000000     2.885000000
C     3.522000000     0.443000000     3.029000000
C     2.624000000    -0.160000000     3.897000000
H     2.541000000    -1.240000000     3.811000000
C     1.588000000     0.571000000     4.465000000
O     0.478000000    -0.109000000     4.958000000
C    -0.628000000    -0.189000000     4.027000000
H    -0.317000000    -0.022000000     2.985000000
C    -1.258000000    -1.563000000     4.083000000
C    -2.689000000    -1.668000000     4.206000000
H    -3.275000000    -0.764000000     4.350000000
C    -0.490000000    -2.717000000     3.902000000
H     0.579000000    -2.638000000     3.721000000
C    -1.133000000    -3.960000000     3.916000000
O    -0.432000000    -5.077000000     3.766000000
C    -2.524000000    -4.061000000     4.009000000
H    -2.959000000    -5.057000000     3.983000000
C    -3.280000000    -2.905000000     4.128000000
O    -4.635000000    -3.038000000     4.332000000
C    -5.643000000    -2.331000000     3.773000000
C    -5.673000000    -2.146000000     2.400000000
H    -4.965000000    -2.734000000     1.822000000
C    -6.582000000    -1.670000000     4.581000000
H    -6.498000000    -1.820000000     5.654000000
C    -7.584000000    -0.940000000     3.934000000
H    -8.401000000    -0.452000000     4.460000000
C    -7.566000000    -0.737000000     2.558000000
H    -8.328000000    -0.134000000     2.070000000
C    -6.707000000    -1.462000000     1.735000000
O    -6.696000000    -1.327000000     0.388000000
C    -6.113000000    -0.333000000    -0.361000000
C    -6.367000000    -0.394000000    -1.766000000
H    -7.042000000    -1.151000000    -2.156000000
C    -5.800000000     0.606000000    -2.580000000
O    -5.944000000     0.597000000    -3.937000000
C    -4.945000000     0.657000000    -4.909000000
C    -3.919000000    -0.210000000    -4.787000000
H    -3.913000000    -0.882000000    -3.932000000
C    -5.028000000     1.530000000    -5.993000000
H    -5.736000000     2.345000000    -6.120000000
C    -3.909000000     1.539000000    -6.840000000
H    -3.868000000     2.268000000    -7.645000000
C    -2.824000000     0.703000000    -6.690000000
H    -2.022000000     0.836000000    -7.411000000
C    -2.823000000    -0.263000000    -5.650000000
O    -1.868000000    -1.230000000    -5.589000000
C    -0.599000000    -0.873000000    -5.305000000
C     0.454000000    -1.759000000    -5.614000000
H     0.090000000    -2.687000000    -6.048000000
C     1.771000000    -1.413000000    -5.364000000
O     2.771000000    -2.354000000    -5.622000000
C     4.010000000    -2.260000000    -5.055000000
C     4.309000000    -2.969000000    -3.899000000
H     3.560000000    -3.708000000    -3.626000000
C     5.001000000    -1.438000000    -5.555000000
H     4.775000000    -0.791000000    -6.400000000
C     6.328000000    -1.458000000    -5.080000000
H     7.011000000    -0.676000000    -5.401000000
C     6.546000000    -2.258000000    -3.941000000
H     7.500000000    -2.202000000    -3.423000000
C     5.531000000    -2.994000000    -3.317000000
O     5.940000000    -3.797000000    -2.269000000
C     5.342000000    -3.576000000    -1.059000000
C     4.947000000    -4.653000000    -0.329000000
H     5.108000000    -5.690000000    -0.611000000
C     4.208000000    -4.395000000     0.834000000
O     3.731000000    -5.477000000     1.522000000
C     3.004000000    -5.427000000     2.707000000
C     3.691000000    -5.434000000     3.901000000
H     4.724000000    -5.769000000     3.853000000
C     2.972000000    -5.277000000     5.083000000
H     3.464000000    -5.440000000     6.039000000
C     1.563000000    -5.131000000     5.101000000
H     1.006000000    -4.973000000     6.021000000
C     0.927000000    -5.166000000     3.880000000
C     1.654000000    -5.403000000     2.676000000
H     1.045000000    -5.480000000     1.779000000
C     1.559000000    -3.484000000    -1.677000000
H     2.572000000    -3.860000000    -1.556000000
C     1.190000000    -2.287000000    -1.055000000
H     1.831000000    -1.729000000    -0.376000000
C    -0.046000000    -1.687000000    -1.298000000
C    -0.470000000    -0.364000000    -0.800000000
H    -1.245000000    -0.462000000    -0.037000000
H     0.402000000     0.162000000    -0.406000000
H    -0.847000000     0.153000000    -1.685000000
C    -0.951000000    -2.383000000    -2.111000000
H    -1.981000000    -2.080000000    -2.281000000
C    -0.641000000    -3.617000000    -2.714000000
H    -1.391000000    -4.127000000    -3.314000000
C     0.651000000    -4.165000000    -2.485000000
C     1.020000000    -5.410000000    -3.306000000
O     0.242000000    -5.799000000    -4.210000000
O     2.035000000    -5.933000000    -3.093000000
O    -0.110000000    -8.511000000    -4.575000000
H     0.155000000    -7.593000000    -4.626000000
H    -0.658000000    -8.646000000    -5.348000000
O    -0.054000000    -6.471000000    -7.806000000
H    -0.371000000    -7.230000000    -8.296000000
H    -0.846000000    -6.070000000    -7.448000000
O     2.895000000    -8.925000000     1.382000000
H     2.763000000    -8.250000000     0.716000000
H     2.531000000    -8.547000000     2.182000000
O    -4.045000000    -7.168000000    -5.386000000
H    -3.476000000    -7.530000000    -4.706000000
H    -4.861000000    -7.661000000    -5.304000000
O    -4.143000000    -4.926000000    -2.479000000
H    -4.411000000    -4.386000000    -3.223000000
H    -3.351000000    -5.372000000    -2.779000000
O     4.619000000    -6.444000000    -3.435000000
H     5.038000000    -5.594000000    -3.571000000
H     3.698000000    -6.235000000    -3.279000000
O     5.023000000    -7.963000000    -6.125000000
H     4.433000000    -8.118000000    -5.387000000
H     5.110000000    -7.011000000    -6.167000000
O    -1.502000000    -4.978000000    -5.956000000
H    -2.238000000    -5.362000000    -5.480000000
H    -0.786000000    -4.965000000    -5.321000000
O     4.557000000    -5.299000000    -6.825000000
H     4.464000000    -4.346000000    -6.831000000
H     3.671000000    -5.626000000    -6.674000000
O     2.104000000    -5.930000000    -6.020000000
H     1.335000000    -5.895000000    -6.589000000
H     1.745000000    -5.987000000    -5.135000000
O     2.522000000    -9.690000000    -5.327000000
H     2.430000000    -9.929000000    -6.249000000
H     1.674000000    -9.312000000    -5.092000000
O    -2.159000000    -7.977000000    -0.431000000
H    -1.418000000    -8.541000000    -0.209000000
H    -2.231000000    -7.374000000     0.308000000
O     5.902000000    -8.439000000    -2.276000000
H     5.368000000    -9.203000000    -2.496000000
H     5.390000000    -7.692000000    -2.586000000
O     0.317000000    -9.203000000    -0.253000000
H     0.854000000    -8.617000000    -0.787000000
H     0.342000000   -10.040000000    -0.718000000
O     2.416000000    -7.921000000    -1.420000000
H     2.164000000    -7.175000000    -1.965000000
H     3.263000000    -8.198000000    -1.771000000
O    -1.974000000    -7.090000000    -3.056000000
H    -1.081000000    -6.914000000    -3.351000000
H    -1.876000000    -7.360000000    -2.143000000
O    -1.417000000   -10.455000000    -2.742000000
H    -0.686000000    -9.841000000    -2.809000000
H    -1.207000000   -11.147000000    -3.369000000
O     4.156000000   -10.321000000    -3.093000000
H     4.365000000   -11.235000000    -3.281000000
H     3.621000000   -10.040000000    -3.835000000
O     1.327000000    -4.360000000    -8.986000000
H     0.509000000    -4.187000000    -9.452000000
H     1.158000000    -5.164000000    -8.495000000
