218
-1466.42575
C     0.799000000    -3.115000000     4.447000000
H     1.100000000    -3.898000000     3.756000000
C    -0.428000000    -2.496000000     4.205000000
C    -0.800000000    -1.508000000     5.121000000
H    -1.704000000    -0.913000000     5.014000000
C    -1.282000000    -2.807000000     2.986000000
O    -0.971000000    -4.163000000     2.523000000
H    -1.092000000    -2.037000000     2.224000000
O    -2.678000000    -2.732000000     3.240000000
C    -3.617000000    -2.122000000     2.374000000
C    -3.823000000    -0.749000000     2.589000000
H    -3.378000000    -0.254000000     3.447000000
C    -4.466000000    -0.058000000     1.555000000
O    -4.581000000     1.315000000     1.612000000
C    -4.776000000    -0.671000000     0.357000000
C    -5.396000000     0.075000000    -0.765000000
H    -6.045000000    -0.645000000    -1.267000000
C    -4.372000000     0.653000000    -1.705000000
C    -4.104000000    -0.010000000    -2.942000000
H    -4.553000000    -0.987000000    -3.105000000
H    -6.024000000     0.880000000    -0.378000000
C    -4.729000000    -2.061000000     0.242000000
H    -4.996000000    -2.644000000    -0.635000000
C    -4.035000000    -2.778000000     1.223000000
C    -3.568000000    -4.232000000     0.981000000
H    -4.291000000    -4.767000000     0.361000000
H    -3.533000000    -4.828000000     1.896000000
C    -2.156000000    -4.243000000     0.368000000
C    -2.079000000    -4.316000000    -1.028000000
H    -2.981000000    -4.212000000    -1.625000000
C    -0.970000000    -4.303000000     1.159000000
C     0.237000000    -4.331000000     0.525000000
H     1.099000000    -4.155000000     1.163000000
C     0.282000000    -4.553000000    -0.856000000
O     1.540000000    -4.367000000    -1.427000000
C     1.901000000    -3.036000000    -1.807000000
C     3.320000000    -2.706000000    -1.299000000
C     3.917000000    -1.587000000    -1.877000000
H     3.495000000    -1.097000000    -2.751000000
C     3.847000000    -3.225000000    -0.099000000
H     3.414000000    -4.039000000     0.476000000
O     1.853000000    -3.081000000    -3.307000000
H     1.175000000    -2.275000000    -1.486000000
C    -0.857000000    -4.518000000    -1.636000000
C    -0.682000000    -4.517000000    -3.156000000
H    -1.551000000    -4.963000000    -3.645000000
H     0.187000000    -5.053000000    -3.542000000
C    -0.564000000    -3.133000000    -3.746000000
C    -1.662000000    -2.349000000    -4.224000000
H    -2.664000000    -2.758000000    -4.121000000
C     0.779000000    -2.563000000    -3.939000000
C     0.904000000    -1.295000000    -4.441000000
H     1.909000000    -0.883000000    -4.478000000
C    -0.188000000    -0.568000000    -4.853000000
O     0.068000000     0.710000000    -5.176000000
C    -0.052000000     1.800000000    -4.153000000
C     0.885000000     3.000000000    -4.256000000
C     2.184000000     2.740000000    -4.727000000
H     2.416000000     1.746000000    -5.101000000
C     0.556000000     4.269000000    -3.806000000
H    -0.473000000     4.545000000    -3.589000000
O    -1.423000000     2.228000000    -4.329000000
H     0.068000000     1.343000000    -3.159000000
C    -1.493000000    -1.062000000    -4.712000000
C    -2.690000000    -0.211000000    -5.019000000
H    -3.528000000    -0.829000000    -5.345000000
H    -2.426000000     0.424000000    -5.868000000
C    -3.107000000     0.536000000    -3.780000000
C    -2.420000000     1.739000000    -3.466000000
C    -2.841000000     2.453000000    -2.364000000
H    -2.315000000     3.386000000    -2.180000000
C    -3.810000000     1.876000000    -1.494000000
O    -4.146000000     2.530000000    -0.318000000
C    -3.587000000     2.035000000     0.895000000
H    -2.821000000     1.344000000     0.513000000
C    -2.825000000     3.142000000     1.686000000
C    -2.857000000     3.097000000     3.084000000
H    -3.574000000     2.439000000     3.568000000
C    -1.952000000     4.034000000     1.081000000
H    -1.785000000     4.046000000     0.007000000
C    -1.073000000     4.827000000     1.871000000
O    -0.166000000     5.723000000     1.365000000
C    -1.105000000     4.774000000     3.225000000
H    -0.289000000     5.297000000     3.717000000
C    -1.984000000     3.883000000     3.874000000
O    -1.974000000     3.913000000     5.269000000
C    -2.253000000     2.758000000     5.925000000
C    -1.244000000     1.872000000     6.214000000
H    -0.261000000     2.057000000     5.788000000
C    -3.562000000     2.385000000     6.180000000
H    -4.341000000     3.121000000     5.999000000
C    -3.785000000     1.175000000     6.829000000
H    -4.784000000     0.902000000     7.160000000
C    -2.717000000     0.419000000     7.254000000
H    -2.837000000    -0.425000000     7.929000000
C    -1.428000000     0.675000000     6.897000000
O    -0.410000000    -0.236000000     7.149000000
C     0.040000000    -1.210000000     6.245000000
C     1.161000000    -1.978000000     6.488000000
H     1.794000000    -1.741000000     7.340000000
C     1.591000000    -2.985000000     5.598000000
O     2.888000000    -3.555000000     5.765000000
C     3.621000000    -4.084000000     4.743000000
C     4.017000000    -3.205000000     3.763000000
H     3.700000000    -2.168000000     3.685000000
C     3.986000000    -5.406000000     4.757000000
H     3.680000000    -6.079000000     5.554000000
C     4.808000000    -5.992000000     3.819000000
H     5.140000000    -7.026000000     3.781000000
C     5.161000000    -5.088000000     2.784000000
H     5.759000000    -5.434000000     1.944000000
C     4.820000000    -3.727000000     2.732000000
O     5.373000000    -2.881000000     1.853000000
C     4.941000000    -2.541000000     0.509000000
C     5.500000000    -1.440000000    -0.138000000
H     6.309000000    -0.907000000     0.356000000
C     5.004000000    -1.019000000    -1.318000000
O     5.624000000     0.122000000    -1.863000000
C     5.492000000     0.502000000    -3.184000000
C     5.166000000     1.803000000    -3.475000000
H     4.966000000     2.531000000    -2.693000000
C     5.826000000    -0.442000000    -4.210000000
H     6.118000000    -1.450000000    -3.926000000
C     5.693000000    -0.118000000    -5.544000000
H     5.865000000    -0.875000000    -6.305000000
C     5.406000000     1.226000000    -5.784000000
H     5.198000000     1.495000000    -6.816000000
C     5.121000000     2.131000000    -4.816000000
O     4.514000000     3.346000000    -5.173000000
C     3.170000000     3.679000000    -4.695000000
C     2.926000000     4.905000000    -4.105000000
H     3.753000000     5.602000000    -3.991000000
C     1.588000000     5.205000000    -3.729000000
O     1.395000000     6.463000000    -3.225000000
C     0.529000000     6.671000000    -2.152000000
C    -0.509000000     7.617000000    -2.335000000
H    -0.761000000     8.143000000    -3.252000000
C    -1.210000000     7.990000000    -1.196000000
H    -2.033000000     8.676000000    -1.377000000
C    -1.101000000     7.332000000    -0.044000000
H    -1.779000000     7.547000000     0.778000000
C    -0.264000000     6.290000000     0.131000000
C     0.622000000     5.981000000    -0.922000000
H     1.436000000     5.286000000    -0.733000000
C     1.315000000     2.299000000    -0.412000000
H     1.303000000     3.305000000    -0.823000000
C     0.234000000     1.445000000    -0.489000000
H    -0.711000000     1.690000000    -0.966000000
C     0.235000000     0.212000000     0.046000000
C    -0.972000000    -0.752000000    -0.040000000
H    -1.832000000    -0.384000000     0.524000000
H    -1.312000000    -0.960000000    -1.056000000
H    -0.652000000    -1.745000000     0.281000000
C     1.352000000    -0.144000000     0.839000000
H     1.330000000    -1.091000000     1.373000000
C     2.502000000     0.624000000     0.915000000
H     3.414000000     0.297000000     1.408000000
C     2.489000000     1.926000000     0.330000000
C     3.762000000     2.829000000     0.447000000
O     4.729000000     2.296000000     0.956000000
O     3.654000000     4.017000000     0.214000000
O     7.005000000     2.584000000    -0.498000000
H     7.542000000     1.810000000    -0.327000000
H     6.154000000     2.375000000    -0.112000000
O     2.989000000     6.003000000     4.401000000
H     2.439000000     6.724000000     4.707000000
H     2.595000000     5.221000000     4.788000000
O     8.744000000     0.166000000    -0.722000000
H     8.834000000    -0.505000000    -0.045000000
H     8.948000000    -0.289000000    -1.539000000
O     2.413000000     3.509000000     5.622000000
H     2.786000000     3.155000000     4.814000000
H     2.889000000     3.061000000     6.321000000
O     5.084000000     5.591000000    -1.420000000
H     4.597000000     4.924000000    -0.936000000
H     5.999000000     5.434000000    -1.187000000
O     3.226000000     0.136000000     4.675000000
H     3.508000000     0.772000000     4.018000000
H     2.309000000     0.355000000     4.842000000
O     7.757000000     5.131000000    -0.973000000
H     8.351000000     4.991000000    -1.711000000
H     7.539000000     4.249000000    -0.670000000
O     4.325000000     8.369000000    -1.175000000
H     4.533000000     8.412000000    -0.242000000
H     4.668000000     7.521000000    -1.458000000
O     5.146000000     8.369000000     1.345000000
H     4.663000000     7.590000000     1.620000000
H     5.263000000     8.876000000     2.148000000
O     7.860000000     6.491000000     3.755000000
H     7.432000000     5.867000000     3.170000000
H     8.643000000     6.769000000     3.279000000
O     3.885000000     2.521000000     3.532000000
H     4.154000000     2.458000000     2.616000000
H     4.553000000     3.072000000     3.940000000
O     6.395000000     0.677000000     2.999000000
H     6.189000000    -0.149000000     3.437000000
H     5.646000000     0.838000000     2.425000000
O     8.579000000     2.435000000     3.479000000
H     7.785000000     2.061000000     3.095000000
H     8.311000000     2.719000000     4.353000000
O     6.909000000     5.269000000    -4.728000000
H     6.321000000     4.515000000    -4.692000000
H     7.621000000     5.046000000    -4.128000000
O     8.684000000     3.322000000    -2.976000000
H     8.073000000     2.745000000    -2.518000000
H     8.718000000     2.976000000    -3.868000000
O     3.530000000     6.207000000     1.560000000
H     3.398000000     5.875000000     2.448000000
H     3.426000000     5.439000000     0.999000000
O     5.921000000     3.929000000     4.775000000
H     5.923000000     4.681000000     5.366000000
H     5.812000000     4.309000000     3.903000000
O     5.932000000     4.675000000     2.103000000
H     6.009000000     3.826000000     1.668000000
H     5.193000000     5.101000000     1.668000000
O     0.698000000     8.393000000     2.554000000
H     0.937000000     7.476000000     2.419000000
H     1.105000000     8.626000000     3.389000000
