218
-1463.97510
C    -0.636000000    -3.493000000     3.723000000
H    -0.864000000    -4.301000000     3.033000000
C    -1.320000000    -2.257000000     3.728000000
C    -0.926000000    -1.271000000     4.600000000
H    -1.493000000    -0.344000000     4.610000000
C    -2.460000000    -2.021000000     2.773000000
O    -2.996000000    -3.244000000     2.267000000
H    -1.953000000    -1.537000000     1.926000000
O    -3.435000000    -1.109000000     3.297000000
C    -3.902000000    -0.060000000     2.519000000
C    -3.500000000     1.226000000     2.821000000
H    -2.967000000     1.402000000     3.752000000
C    -3.837000000     2.290000000     1.994000000
O    -3.228000000     3.480000000     2.234000000
C    -4.497000000     2.081000000     0.782000000
C    -4.650000000     3.219000000    -0.236000000
H    -5.605000000     3.299000000    -0.759000000
C    -3.464000000     3.320000000    -1.122000000
C    -3.412000000     2.625000000    -2.327000000
H    -4.317000000     2.074000000    -2.570000000
H    -4.713000000     4.121000000     0.377000000
C    -4.968000000     0.790000000     0.445000000
H    -5.436000000     0.586000000    -0.515000000
C    -4.639000000    -0.282000000     1.340000000
C    -5.197000000    -1.671000000     0.918000000
H    -6.070000000    -1.481000000     0.290000000
H    -5.472000000    -2.212000000     1.826000000
C    -4.140000000    -2.461000000     0.194000000
C    -4.076000000    -2.347000000    -1.204000000
H    -4.704000000    -1.613000000    -1.704000000
C    -3.192000000    -3.262000000     0.842000000
C    -2.193000000    -3.823000000     0.083000000
H    -1.543000000    -4.526000000     0.598000000
C    -2.192000000    -3.855000000    -1.334000000
O    -1.152000000    -4.497000000    -1.990000000
C    -0.034000000    -3.626000000    -2.403000000
C     1.301000000    -4.230000000    -2.100000000
C     2.380000000    -4.031000000    -3.008000000
H     2.229000000    -3.348000000    -3.840000000
C     1.552000000    -4.990000000    -0.937000000
H     0.729000000    -5.129000000    -0.241000000
O    -0.242000000    -3.285000000    -3.756000000
H    -0.061000000    -2.741000000    -1.750000000
C    -3.140000000    -3.063000000    -1.960000000
C    -3.164000000    -2.957000000    -3.469000000
H    -4.211000000    -2.822000000    -3.746000000
H    -2.857000000    -3.935000000    -3.844000000
C    -2.256000000    -1.886000000    -4.048000000
C    -2.685000000    -0.532000000    -4.181000000
H    -3.754000000    -0.398000000    -4.038000000
C    -0.871000000    -2.101000000    -4.076000000
C    -0.054000000    -1.050000000    -4.483000000
H     1.026000000    -1.122000000    -4.581000000
C    -0.579000000     0.219000000    -4.743000000
O     0.310000000     1.315000000    -4.799000000
C     0.708000000     1.949000000    -3.547000000
C     2.173000000     2.062000000    -3.226000000
C     3.126000000     1.047000000    -3.615000000
H     2.826000000     0.221000000    -4.255000000
C     2.612000000     3.213000000    -2.581000000
H     1.874000000     3.979000000    -2.357000000
O    -0.032000000     3.219000000    -3.494000000
H     0.357000000     1.332000000    -2.707000000
C    -1.922000000     0.480000000    -4.569000000
C    -2.541000000     1.867000000    -4.491000000
H    -3.619000000     1.895000000    -4.664000000
H    -2.308000000     2.529000000    -5.328000000
C    -2.370000000     2.587000000    -3.194000000
C    -1.232000000     3.306000000    -2.807000000
C    -1.301000000     4.062000000    -1.640000000
H    -0.431000000     4.620000000    -1.303000000
C    -2.410000000     4.122000000    -0.772000000
O    -2.156000000     4.634000000     0.469000000
C    -1.941000000     3.771000000     1.593000000
H    -1.613000000     2.815000000     1.158000000
C    -0.877000000     4.308000000     2.528000000
C    -0.872000000     4.049000000     3.873000000
H    -1.580000000     3.350000000     4.310000000
C     0.183000000     5.151000000     1.948000000
H     0.269000000     5.270000000     0.871000000
C     1.195000000     5.620000000     2.780000000
O     2.146000000     6.448000000     2.188000000
C     1.157000000     5.430000000     4.136000000
H     1.923000000     5.865000000     4.773000000
C     0.113000000     4.621000000     4.674000000
O     0.173000000     4.252000000     6.013000000
C    -0.273000000     3.014000000     6.521000000
C     0.495000000     1.822000000     6.332000000
H     1.500000000     1.892000000     5.925000000
C    -1.475000000     2.994000000     7.134000000
H    -1.870000000     3.973000000     7.393000000
C    -2.096000000     1.789000000     7.475000000
H    -3.062000000     1.908000000     7.959000000
C    -1.412000000     0.614000000     7.288000000
H    -1.982000000    -0.309000000     7.366000000
C    -0.149000000     0.618000000     6.676000000
O     0.458000000    -0.566000000     6.484000000
C     0.125000000    -1.478000000     5.444000000
C     0.714000000    -2.699000000     5.448000000
H     1.492000000    -2.831000000     6.196000000
C     0.427000000    -3.754000000     4.588000000
O     1.132000000    -4.945000000     4.595000000
C     1.173000000    -5.779000000     3.432000000
C     2.033000000    -5.401000000     2.372000000
H     2.624000000    -4.488000000     2.361000000
C     0.513000000    -7.035000000     3.497000000
H     0.117000000    -7.438000000     4.425000000
C     0.718000000    -7.918000000     2.416000000
H     0.297000000    -8.918000000     2.473000000
C     1.574000000    -7.562000000     1.326000000
H     1.912000000    -8.208000000     0.520000000
C     2.267000000    -6.380000000     1.352000000
O     3.219000000    -6.143000000     0.417000000
C     2.857000000    -5.430000000    -0.727000000
C     3.890000000    -5.140000000    -1.648000000
H     4.881000000    -5.548000000    -1.470000000
C     3.615000000    -4.499000000    -2.848000000
O     4.588000000    -4.343000000    -3.822000000
C     4.828000000    -3.119000000    -4.491000000
C     5.029000000    -2.047000000    -3.635000000
H     5.032000000    -2.187000000    -2.557000000
C     4.927000000    -3.002000000    -5.893000000
H     4.885000000    -3.848000000    -6.574000000
C     5.273000000    -1.838000000    -6.422000000
H     5.529000000    -1.788000000    -7.477000000
C     5.451000000    -0.717000000    -5.645000000
H     5.820000000     0.160000000    -6.169000000
C     5.282000000    -0.807000000    -4.286000000
O     5.515000000     0.331000000    -3.535000000
C     4.437000000     1.205000000    -3.212000000
C     4.831000000     2.360000000    -2.509000000
H     5.898000000     2.444000000    -2.319000000
C     3.961000000     3.303000000    -2.201000000
O     4.446000000     4.385000000    -1.559000000
C     3.637000000     5.403000000    -1.004000000
C     3.265000000     6.464000000    -1.828000000
H     3.715000000     6.506000000    -2.817000000
C     2.522000000     7.485000000    -1.311000000
H     2.353000000     8.343000000    -1.958000000
C     2.073000000     7.459000000     0.030000000
H     1.498000000     8.302000000     0.406000000
C     2.482000000     6.383000000     0.816000000
C     3.341000000     5.386000000     0.390000000
H     3.504000000     4.451000000     0.920000000
C     1.326000000    -0.749000000     2.325000000
H     1.328000000    -0.703000000     3.411000000
C     0.193000000    -0.323000000     1.683000000
H    -0.554000000     0.129000000     2.330000000
C     0.124000000    -0.398000000     0.296000000
C    -0.969000000     0.441000000    -0.351000000
H    -0.662000000     1.486000000    -0.272000000
H    -1.089000000     0.257000000    -1.421000000
H    -1.937000000     0.347000000     0.146000000
C     1.221000000    -0.948000000    -0.358000000
H     1.178000000    -0.962000000    -1.444000000
C     2.320000000    -1.507000000     0.305000000
H     3.079000000    -1.917000000    -0.356000000
C     2.365000000    -1.406000000     1.677000000
C     3.441000000    -1.985000000     2.499000000
O     4.617000000    -1.998000000     2.021000000
O     3.228000000    -2.332000000     3.623000000
O     6.828000000    -4.801000000     5.058000000
H     5.995000000    -4.615000000     5.490000000
H     6.583000000    -5.126000000     4.192000000
O     7.470000000    -1.124000000     2.178000000
H     7.518000000    -0.541000000     2.936000000
H     6.636000000    -1.583000000     2.281000000
O     7.859000000    -2.293000000     5.817000000
H     7.551000000    -3.091000000     5.388000000
H     7.188000000    -1.639000000     5.617000000
O     6.407000000    -5.718000000     2.608000000
H     7.020000000    -5.937000000     1.905000000
H     5.842000000    -5.044000000     2.231000000
O     7.212000000     0.142000000     7.088000000
H     8.068000000     0.372000000     7.449000000
H     7.180000000     0.591000000     6.243000000
O     7.405000000     1.355000000     4.686000000
H     7.472000000     2.205000000     5.121000000
H     6.838000000     1.517000000     3.932000000
O     3.470000000    -0.962000000     6.228000000
H     3.273000000    -1.399000000     5.399000000
H     3.372000000    -1.648000000     6.889000000
O     5.654000000    -0.792000000     4.351000000
H     5.376000000    -1.649000000     4.028000000
H     4.878000000    -0.436000000     4.784000000
O     2.925000000     1.441000000     0.031000000
H     3.708000000     1.190000000    -0.458000000
H     2.435000000     0.625000000     0.134000000
O     8.138000000    -2.052000000    -0.416000000
H     8.063000000    -1.420000000     0.299000000
H     7.668000000    -2.825000000    -0.102000000
O     3.330000000    -2.777000000     8.357000000
H     2.404000000    -2.769000000     8.601000000
H     3.656000000    -3.616000000     8.682000000
O     5.287000000    -0.149000000     0.205000000
H     5.897000000    -0.685000000    -0.301000000
H     5.022000000    -0.709000000     0.934000000
O     4.438000000    -5.150000000     8.200000000
H     4.058000000    -6.017000000     8.341000000
H     4.075000000    -4.864000000     7.361000000
O     4.111000000     2.521000000     4.226000000
H     3.259000000     2.434000000     3.798000000
H     3.913000000     2.486000000     5.162000000
O     5.637000000     2.500000000     1.682000000
H     5.183000000     2.388000000     2.518000000
H     5.612000000     1.632000000     1.279000000
O     4.053000000    -4.203000000     5.267000000
H     3.232000000    -4.696000000     5.262000000
H     3.951000000    -3.561000000     4.565000000
O     5.787000000    -3.607000000     0.475000000
H     5.400000000    -2.985000000     1.091000000
H     5.120000000    -3.721000000    -0.202000000
O     2.043000000     2.074000000     2.640000000
H     1.135000000     2.043000000     2.336000000
H     2.564000000     2.059000000     1.837000000
O     3.624000000     1.537000000     7.361000000
H     3.696000000     0.754000000     6.815000000
H     3.031000000     1.283000000     8.068000000
