218
-1484.36300
C     0.022000000    -4.714000000     3.043000000
H     0.151000000    -5.247000000     2.105000000
C    -1.012000000    -3.757000000     3.180000000
C    -1.153000000    -3.138000000     4.452000000
H    -2.034000000    -2.532000000     4.645000000
C    -1.890000000    -3.364000000     1.986000000
O    -2.141000000    -4.506000000     1.094000000
H    -1.321000000    -2.546000000     1.520000000
O    -3.149000000    -2.910000000     2.541000000
C    -3.718000000    -1.817000000     1.896000000
C    -3.522000000    -0.571000000     2.499000000
H    -3.030000000    -0.518000000     3.467000000
C    -4.018000000     0.583000000     1.859000000
O    -3.807000000     1.812000000     2.431000000
C    -4.700000000     0.480000000     0.626000000
C    -5.126000000     1.723000000    -0.046000000
H    -5.853000000     1.448000000    -0.813000000
C    -4.077000000     2.423000000    -0.801000000
C    -3.977000000     2.109000000    -2.186000000
H    -4.597000000     1.351000000    -2.657000000
H    -5.633000000     2.351000000     0.691000000
C    -4.880000000    -0.776000000     0.028000000
H    -5.344000000    -0.882000000    -0.949000000
C    -4.420000000    -1.943000000     0.680000000
C    -4.623000000    -3.297000000     0.033000000
H    -5.543000000    -3.350000000    -0.553000000
H    -4.752000000    -4.098000000     0.764000000
C    -3.395000000    -3.558000000    -0.851000000
C    -3.426000000    -3.073000000    -2.147000000
H    -4.306000000    -2.537000000    -2.495000000
C    -2.322000000    -4.224000000    -0.312000000
C    -1.228000000    -4.443000000    -1.140000000
H    -0.388000000    -5.064000000    -0.841000000
C    -1.243000000    -3.935000000    -2.446000000
O    -0.046000000    -3.982000000    -3.123000000
C     0.777000000    -2.787000000    -3.155000000
C     2.258000000    -2.900000000    -2.708000000
C     3.273000000    -2.207000000    -3.367000000
H     3.152000000    -1.801000000    -4.368000000
C     2.619000000    -3.610000000    -1.552000000
H     1.844000000    -4.158000000    -1.024000000
O     0.647000000    -2.165000000    -4.441000000
H     0.434000000    -2.055000000    -2.410000000
C    -2.295000000    -3.231000000    -2.976000000
C    -2.193000000    -2.744000000    -4.352000000
H    -3.221000000    -2.820000000    -4.714000000
H    -1.612000000    -3.345000000    -5.053000000
C    -1.651000000    -1.361000000    -4.453000000
C    -2.503000000    -0.216000000    -4.378000000
H    -3.577000000    -0.361000000    -4.285000000
C    -0.245000000    -1.154000000    -4.497000000
C     0.312000000     0.142000000    -4.556000000
H     1.376000000     0.347000000    -4.635000000
C    -0.521000000     1.264000000    -4.637000000
O     0.064000000     2.552000000    -4.481000000
C     0.159000000     3.116000000    -3.164000000
C     1.469000000     3.738000000    -2.841000000
C     2.601000000     3.299000000    -3.513000000
H     2.519000000     2.557000000    -4.302000000
C     1.586000000     4.493000000    -1.694000000
H     0.656000000     4.795000000    -1.220000000
O    -0.887000000     4.141000000    -2.969000000
H    -0.035000000     2.353000000    -2.396000000
C    -1.911000000     1.064000000    -4.472000000
C    -2.827000000     2.300000000    -4.387000000
H    -3.777000000     2.114000000    -4.891000000
H    -2.317000000     3.160000000    -4.826000000
C    -2.971000000     2.767000000    -2.932000000
C    -2.044000000     3.613000000    -2.347000000
C    -2.256000000     3.982000000    -1.036000000
H    -1.502000000     4.580000000    -0.530000000
C    -3.206000000     3.303000000    -0.237000000
O    -3.200000000     3.532000000     1.101000000
C    -2.640000000     2.492000000     1.987000000
H    -1.926000000     1.846000000     1.456000000
C    -1.819000000     3.061000000     3.147000000
C    -1.352000000     2.206000000     4.115000000
H    -1.639000000     1.158000000     4.081000000
C    -1.409000000     4.428000000     3.073000000
H    -1.735000000     5.202000000     2.383000000
C    -0.369000000     4.840000000     3.940000000
O     0.177000000     6.128000000     3.749000000
C     0.106000000     3.970000000     4.933000000
H     0.875000000     4.286000000     5.634000000
C    -0.404000000     2.684000000     5.039000000
O     0.206000000     1.812000000     5.859000000
C    -0.458000000     0.793000000     6.528000000
C    -0.143000000    -0.536000000     6.269000000
H     0.641000000    -0.707000000     5.536000000
C    -1.501000000     1.179000000     7.448000000
H    -1.711000000     2.237000000     7.582000000
C    -2.199000000     0.157000000     8.053000000
H    -3.102000000     0.379000000     8.616000000
C    -1.760000000    -1.183000000     7.941000000
H    -2.277000000    -2.025000000     8.395000000
C    -0.799000000    -1.560000000     6.977000000
O    -0.548000000    -2.900000000     6.734000000
C    -0.342000000    -3.463000000     5.484000000
C     0.748000000    -4.310000000     5.281000000
H     1.540000000    -4.536000000     5.990000000
C     0.933000000    -4.969000000     4.047000000
O     2.021000000    -5.824000000     3.866000000
C     2.584000000    -6.080000000     2.590000000
C     3.143000000    -4.972000000     1.938000000
H     3.256000000    -4.006000000     2.422000000
C     2.537000000    -7.359000000     2.022000000
H     2.213000000    -8.185000000     2.650000000
C     3.140000000    -7.511000000     0.749000000
H     3.232000000    -8.540000000     0.408000000
C     3.737000000    -6.411000000     0.143000000
H     4.366000000    -6.487000000    -0.740000000
C     3.671000000    -5.129000000     0.709000000
O     4.345000000    -4.119000000     0.121000000
C     3.895000000    -3.529000000    -1.047000000
C     4.877000000    -2.800000000    -1.725000000
H     5.928000000    -2.829000000    -1.450000000
C     4.520000000    -2.079000000    -2.863000000
O     5.522000000    -1.699000000    -3.740000000
C     5.522000000    -0.453000000    -4.366000000
C     5.340000000     0.663000000    -3.630000000
H     5.193000000     0.513000000    -2.564000000
C     5.904000000    -0.319000000    -5.675000000
H     6.044000000    -1.215000000    -6.274000000
C     6.016000000     0.886000000    -6.304000000
H     6.348000000     0.882000000    -7.339000000
C     5.714000000     2.020000000    -5.571000000
H     5.774000000     3.026000000    -5.978000000
C     5.380000000     1.899000000    -4.229000000
O     5.083000000     3.090000000    -3.600000000
C     3.900000000     3.551000000    -2.997000000
C     4.020000000     4.341000000    -1.813000000
H     5.009000000     4.612000000    -1.454000000
C     2.845000000     4.806000000    -1.170000000
O     2.988000000     5.605000000    -0.059000000
C     1.924000000     6.221000000     0.610000000
C     1.306000000     7.288000000    -0.039000000
H     1.608000000     7.701000000    -0.999000000
C     0.329000000     8.038000000     0.601000000
H    -0.168000000     8.883000000     0.131000000
C    -0.036000000     7.610000000     1.848000000
H    -0.801000000     8.186000000     2.362000000
C     0.582000000     6.510000000     2.479000000
C     1.587000000     5.803000000     1.849000000
H     2.022000000     4.932000000     2.333000000
C     1.421000000    -0.900000000     1.932000000
H     1.329000000    -1.144000000     2.987000000
C     0.281000000    -0.384000000     1.259000000
H    -0.708000000    -0.412000000     1.710000000
C     0.343000000     0.005000000    -0.076000000
C    -1.004000000     0.163000000    -0.832000000
H    -1.580000000    -0.750000000    -0.664000000
H    -1.599000000     1.040000000    -0.568000000
H    -0.850000000     0.093000000    -1.911000000
C     1.535000000    -0.085000000    -0.773000000
H     1.524000000     0.150000000    -1.834000000
C     2.743000000    -0.378000000    -0.062000000
H     3.659000000    -0.222000000    -0.626000000
C     2.677000000    -0.754000000     1.290000000
C     3.926000000    -1.084000000     1.981000000
O     4.928000000    -0.383000000     1.722000000
O     3.910000000    -1.737000000     3.053000000
O     8.613000000    -0.824000000    -1.041000000
H     8.684000000    -1.645000000    -0.554000000
H     9.492000000    -0.675000000    -1.390000000
O     1.702000000     2.260000000     2.014000000
H     2.467000000     2.493000000     1.488000000
H     1.478000000     1.373000000     1.731000000
O     4.672000000     5.301000000     3.209000000
H     4.940000000     4.811000000     2.431000000
H     4.047000000     4.727000000     3.651000000
O     8.140000000     0.728000000     5.761000000
H     8.345000000    -0.071000000     5.275000000
H     8.680000000     1.403000000     5.350000000
O     3.366000000     3.020000000     3.938000000
H     3.161000000     2.240000000     4.454000000
H     2.716000000     3.020000000     3.235000000
O     4.928000000    -6.172000000     5.584000000
H     4.256000000    -5.676000000     5.116000000
H     5.753000000    -5.881000000     5.198000000
O     7.338000000    -5.504000000     3.814000000
H     7.917000000    -4.957000000     3.284000000
H     7.919000000    -6.155000000     4.208000000
O     4.147000000    -1.555000000     6.827000000
H     4.815000000    -1.299000000     7.463000000
H     4.578000000    -2.207000000     6.275000000
O     7.426000000     3.816000000     4.797000000
H     6.963000000     3.216000000     4.214000000
H     8.235000000     3.356000000     5.022000000
O     6.973000000    -5.746000000     0.719000000
H     7.585000000    -5.528000000     0.016000000
H     6.620000000    -4.902000000     1.001000000
O     6.368000000     0.672000000    -0.327000000
H     6.931000000    -0.006000000    -0.701000000
H     5.918000000     0.236000000     0.397000000
O     5.858000000     3.651000000     1.141000000
H     5.833000000     3.053000000     1.889000000
H     6.123000000     3.101000000     0.404000000
O     6.078000000     1.588000000     3.192000000
H     5.307000000     1.744000000     3.738000000
H     5.784000000     0.954000000     2.538000000
O     8.336000000     0.040000000     1.979000000
H     8.433000000     0.263000000     1.053000000
H     8.268000000     0.885000000     2.423000000
O     9.261000000    -1.812000000     4.361000000
H     8.928000000    -1.675000000     3.474000000
H    10.118000000    -1.385000000     4.364000000
O     9.374000000    -3.299000000     1.378000000
H     9.648000000    -3.894000000     2.076000000
H     8.470000000    -3.073000000     1.597000000
O     6.864000000    -2.407000000     2.050000000
H     6.027000000    -2.106000000     2.403000000
H     7.371000000    -1.606000000     1.917000000
O     4.681000000    -3.703000000     4.502000000
H     5.592000000    -3.847000000     4.245000000
H     4.317000000    -3.163000000     3.800000000
O     3.638000000     0.460000000     5.156000000
H     3.770000000    -0.018000000     4.337000000
H     3.769000000    -0.196000000     5.840000000
