218
-1452.60196
C    -0.950000000    -4.090000000     3.072000000
H    -1.161000000    -4.820000000     2.296000000
C    -1.617000000    -2.909000000     3.234000000
C    -1.255000000    -2.081000000     4.330000000
H    -1.734000000    -1.129000000     4.541000000
C    -2.621000000    -2.570000000     2.259000000
O    -2.944000000    -3.718000000     1.473000000
H    -2.234000000    -1.763000000     1.619000000
O    -3.833000000    -1.996000000     2.795000000
C    -4.283000000    -0.834000000     2.093000000
C    -3.861000000     0.362000000     2.627000000
H    -3.311000000     0.264000000     3.560000000
C    -4.072000000     1.522000000     1.916000000
O    -3.569000000     2.730000000     2.376000000
C    -4.680000000     1.458000000     0.665000000
C    -4.877000000     2.728000000    -0.187000000
H    -5.692000000     2.559000000    -0.893000000
C    -3.588000000     3.086000000    -0.984000000
C    -3.561000000     2.588000000    -2.296000000
H    -4.412000000     1.993000000    -2.618000000
H    -5.122000000     3.586000000     0.443000000
C    -5.194000000     0.237000000     0.118000000
H    -5.718000000     0.262000000    -0.834000000
C    -4.914000000    -0.916000000     0.829000000
C    -5.167000000    -2.258000000     0.066000000
H    -5.931000000    -2.149000000    -0.707000000
H    -5.564000000    -2.966000000     0.796000000
C    -3.893000000    -2.755000000    -0.573000000
C    -3.784000000    -2.681000000    -2.004000000
H    -4.552000000    -2.116000000    -2.527000000
C    -2.893000000    -3.526000000     0.126000000
C    -1.854000000    -4.159000000    -0.548000000
H    -0.979000000    -4.584000000    -0.062000000
C    -1.651000000    -3.804000000    -1.916000000
O    -0.460000000    -4.210000000    -2.499000000
C     0.492000000    -3.117000000    -2.780000000
C     1.890000000    -3.475000000    -2.289000000
C     3.008000000    -2.967000000    -2.953000000
H     2.797000000    -2.333000000    -3.811000000
C     2.092000000    -4.220000000    -1.175000000
H     1.187000000    -4.403000000    -0.601000000
O     0.482000000    -2.662000000    -4.140000000
H     0.223000000    -2.214000000    -2.211000000
C    -2.678000000    -3.149000000    -2.661000000
C    -2.475000000    -2.827000000    -4.177000000
H    -3.458000000    -2.797000000    -4.652000000
H    -1.932000000    -3.668000000    -4.613000000
C    -1.660000000    -1.570000000    -4.425000000
C    -2.315000000    -0.301000000    -4.383000000
H    -3.398000000    -0.243000000    -4.318000000
C    -0.312000000    -1.598000000    -4.444000000
C     0.398000000    -0.413000000    -4.604000000
H     1.482000000    -0.473000000    -4.567000000
C    -0.274000000     0.797000000    -4.713000000
O     0.553000000     1.876000000    -4.669000000
C     0.675000000     2.587000000    -3.426000000
C     2.117000000     2.987000000    -3.077000000
C     3.192000000     2.224000000    -3.663000000
H     2.984000000     1.617000000    -4.541000000
C     2.400000000     3.890000000    -2.049000000
H     1.634000000     4.448000000    -1.516000000
O    -0.203000000     3.687000000    -3.351000000
H     0.381000000     1.933000000    -2.592000000
C    -1.636000000     0.919000000    -4.515000000
C    -2.380000000     2.270000000    -4.543000000
H    -3.388000000     2.237000000    -4.962000000
H    -1.863000000     3.000000000    -5.170000000
C    -2.480000000     2.894000000    -3.141000000
C    -1.359000000     3.571000000    -2.635000000
C    -1.367000000     3.997000000    -1.280000000
H    -0.454000000     4.396000000    -0.845000000
C    -2.516000000     3.774000000    -0.476000000
O    -2.467000000     4.202000000     0.810000000
C    -2.311000000     3.189000000     1.841000000
H    -1.769000000     2.321000000     1.436000000
C    -1.409000000     3.701000000     3.009000000
C    -1.322000000     3.161000000     4.269000000
H    -1.947000000     2.333000000     4.596000000
C    -0.361000000     4.580000000     2.667000000
H    -0.207000000     4.787000000     1.611000000
C     0.577000000     5.007000000     3.595000000
O     1.479000000     5.993000000     3.266000000
C     0.516000000     4.511000000     4.872000000
H     1.199000000     4.871000000     5.637000000
C    -0.449000000     3.600000000     5.261000000
O    -0.601000000     3.146000000     6.571000000
C    -0.872000000     1.897000000     6.850000000
C    -0.286000000     0.790000000     6.238000000
H     0.433000000     0.953000000     5.439000000
C    -1.755000000     1.757000000     7.878000000
H    -2.333000000     2.584000000     8.283000000
C    -2.093000000     0.475000000     8.359000000
H    -2.813000000     0.484000000     9.173000000
C    -1.391000000    -0.631000000     7.881000000
H    -1.458000000    -1.580000000     8.407000000
C    -0.481000000    -0.483000000     6.846000000
O     0.131000000    -1.587000000     6.374000000
C    -0.301000000    -2.456000000     5.294000000
C     0.317000000    -3.720000000     5.087000000
H     1.032000000    -4.066000000     5.829000000
C    -0.029000000    -4.547000000     4.005000000
O     0.531000000    -5.784000000     3.909000000
C     1.066000000    -6.296000000     2.677000000
C     2.088000000    -5.629000000     2.024000000
H     2.452000000    -4.659000000     2.353000000
C     0.542000000    -7.450000000     2.106000000
H    -0.281000000    -7.964000000     2.597000000
C     0.999000000    -7.894000000     0.878000000
H     0.586000000    -8.795000000     0.432000000
C     2.089000000    -7.253000000     0.226000000
H     2.535000000    -7.528000000    -0.727000000
C     2.617000000    -6.149000000     0.856000000
O     3.641000000    -5.425000000     0.314000000
C     3.361000000    -4.581000000    -0.823000000
C     4.508000000    -4.114000000    -1.483000000
H     5.521000000    -4.301000000    -1.138000000
C     4.314000000    -3.194000000    -2.502000000
O     5.492000000    -2.657000000    -3.110000000
C     5.484000000    -1.679000000    -4.054000000
C     5.385000000    -0.398000000    -3.599000000
H     5.401000000    -0.204000000    -2.529000000
C     5.396000000    -1.874000000    -5.452000000
H     5.436000000    -2.863000000    -5.902000000
C     5.424000000    -0.805000000    -6.318000000
H     5.516000000    -0.954000000    -7.391000000
C     5.382000000     0.459000000    -5.815000000
H     5.375000000     1.322000000    -6.476000000
C     5.393000000     0.677000000    -4.425000000
O     5.570000000     1.895000000    -3.872000000
C     4.507000000     2.527000000    -3.309000000
C     4.765000000     3.478000000    -2.370000000
H     5.797000000     3.704000000    -2.113000000
C     3.713000000     4.052000000    -1.659000000
O     4.115000000     4.741000000    -0.550000000
C     3.284000000     5.684000000     0.041000000
C     3.198000000     6.928000000    -0.459000000
H     3.661000000     7.069000000    -1.432000000
C     2.500000000     7.890000000     0.332000000
H     2.480000000     8.915000000    -0.030000000
C     2.018000000     7.564000000     1.606000000
H     1.615000000     8.377000000     2.204000000
C     2.023000000     6.271000000     2.010000000
C     2.730000000     5.319000000     1.274000000
H     2.832000000     4.340000000     1.734000000
C     2.050000000    -0.830000000     3.410000000
H     1.746000000    -1.015000000     4.437000000
C     1.076000000    -0.356000000     2.462000000
H     0.086000000    -0.065000000     2.802000000
C     1.387000000    -0.162000000     1.111000000
C     0.328000000     0.113000000     0.115000000
H     0.371000000     1.143000000    -0.245000000
H     0.288000000    -0.708000000    -0.604000000
H    -0.677000000    -0.097000000     0.485000000
C     2.679000000    -0.467000000     0.655000000
H     2.909000000    -0.323000000    -0.398000000
C     3.596000000    -0.965000000     1.599000000
H     4.606000000    -1.148000000     1.242000000
C     3.355000000    -1.095000000     2.967000000
C     4.384000000    -1.549000000     3.954000000
O     5.448000000    -1.893000000     3.565000000
O     4.318000000    -1.356000000     5.160000000
O     3.251000000     2.680000000     3.705000000
H     2.410000000     2.348000000     3.389000000
H     3.511000000     2.062000000     4.388000000
O     6.654000000     2.326000000     5.315000000
H     7.170000000     1.836000000     5.956000000
H     7.300000000     2.662000000     4.694000000
O     5.436000000    -1.388000000     9.183000000
H     5.144000000    -2.064000000     8.571000000
H     4.746000000    -0.725000000     9.154000000
O     5.878000000    -4.282000000     4.597000000
H     5.069000000    -4.521000000     5.049000000
H     5.660000000    -3.476000000     4.128000000
O     4.245000000     1.347000000     5.822000000
H     4.437000000     0.471000000     5.486000000
H     5.026000000     1.860000000     5.613000000
O     1.397000000    -3.044000000     9.423000000
H     1.846000000    -2.792000000     8.616000000
H     1.582000000    -2.329000000    10.033000000
O     3.948000000     1.172000000     8.747000000
H     3.796000000     1.109000000     7.804000000
H     3.630000000     2.044000000     8.983000000
O     8.746000000    -4.321000000     4.435000000
H     7.821000000    -4.537000000     4.554000000
H     8.857000000    -4.254000000     3.487000000
O     3.439000000    -5.192000000     5.225000000
H     3.807000000    -5.682000000     5.960000000
H     3.312000000    -5.848000000     4.540000000
O     9.053000000    -2.055000000     0.606000000
H     9.428000000    -1.222000000     0.323000000
H     8.257000000    -1.812000000     1.079000000
O     7.729000000    -4.148000000    -0.514000000
H     7.127000000    -4.168000000     0.230000000
H     8.338000000    -3.437000000    -0.310000000
O     6.029000000     2.078000000     0.620000000
H     6.644000000     2.043000000    -0.112000000
H     5.211000000     1.733000000     0.262000000
O     8.476000000    -0.027000000     5.306000000
H     7.815000000    -0.499000000     5.813000000
H     8.284000000    -0.250000000     4.395000000
O     7.372000000    -0.456000000     2.491000000
H     6.957000000     0.357000000     2.202000000
H     6.729000000    -0.860000000     3.073000000
O     8.542000000    -2.851000000     8.642000000
H     7.748000000    -2.396000000     8.360000000
H     9.068000000    -2.930000000     7.847000000
O     6.060000000    -3.580000000     1.474000000
H     5.620000000    -4.381000000     1.758000000
H     5.731000000    -2.903000000     2.066000000
O     6.664000000    -7.160000000     5.138000000
H     6.438000000    -6.615000000     4.384000000
H     6.634000000    -6.561000000     5.884000000
O     3.024000000    -2.650000000     7.163000000
H     2.699000000    -3.354000000     6.602000000
H     3.607000000    -2.143000000     6.598000000
O     6.696000000    -1.999000000     6.289000000
H     6.895000000    -2.935000000     6.251000000
H     6.111000000    -1.848000000     5.547000000
