218
-1444.37326
C    -0.835000000    -4.409000000     3.122000000
H    -0.836000000    -5.005000000     2.213000000
C    -1.526000000    -3.170000000     3.157000000
C    -1.309000000    -2.278000000     4.212000000
H    -1.780000000    -1.304000000     4.108000000
C    -2.430000000    -2.728000000     2.030000000
O    -2.721000000    -3.865000000     1.223000000
H    -1.816000000    -2.037000000     1.434000000
O    -3.681000000    -2.237000000     2.514000000
C    -4.219000000    -1.239000000     1.856000000
C    -3.880000000    -0.024000000     2.360000000
H    -3.380000000     0.039000000     3.323000000
C    -4.139000000     1.134000000     1.612000000
O    -3.689000000     2.332000000     2.107000000
C    -4.775000000     1.010000000     0.372000000
C    -5.033000000     2.383000000    -0.367000000
H    -5.829000000     2.114000000    -1.063000000
C    -3.859000000     2.883000000    -1.191000000
C    -3.722000000     2.469000000    -2.498000000
H    -4.541000000     1.901000000    -2.932000000
H    -5.361000000     3.182000000     0.302000000
C    -5.016000000    -0.200000000    -0.206000000
H    -5.495000000    -0.300000000    -1.177000000
C    -4.867000000    -1.362000000     0.593000000
C    -5.032000000    -2.698000000    -0.098000000
H    -5.821000000    -2.536000000    -0.835000000
H    -5.369000000    -3.492000000     0.572000000
C    -3.723000000    -3.109000000    -0.791000000
C    -3.512000000    -2.887000000    -2.146000000
H    -4.174000000    -2.231000000    -2.707000000
C    -2.660000000    -3.744000000    -0.075000000
C    -1.466000000    -4.145000000    -0.774000000
H    -0.697000000    -4.788000000    -0.353000000
C    -1.303000000    -3.848000000    -2.114000000
O    -0.103000000    -4.084000000    -2.667000000
C     0.891000000    -3.018000000    -2.880000000
C     2.262000000    -3.477000000    -2.407000000
C     3.378000000    -2.977000000    -3.113000000
H     3.225000000    -2.238000000    -3.895000000
C     2.421000000    -4.072000000    -1.215000000
H     1.573000000    -4.117000000    -0.536000000
O     0.840000000    -2.395000000    -4.149000000
H     0.733000000    -2.140000000    -2.238000000
C    -2.266000000    -3.171000000    -2.812000000
C    -2.076000000    -2.781000000    -4.203000000
H    -3.065000000    -2.728000000    -4.663000000
H    -1.500000000    -3.537000000    -4.742000000
C    -1.347000000    -1.455000000    -4.367000000
C    -2.118000000    -0.326000000    -4.618000000
H    -3.182000000    -0.549000000    -4.603000000
C     0.066000000    -1.324000000    -4.429000000
C     0.665000000    -0.037000000    -4.524000000
H     1.750000000     0.007000000    -4.564000000
C    -0.180000000     1.079000000    -4.622000000
O     0.505000000     2.284000000    -4.453000000
C     0.512000000     2.918000000    -3.218000000
C     1.887000000     3.303000000    -2.783000000
C     2.937000000     2.413000000    -2.875000000
H     2.816000000     1.404000000    -3.263000000
C     2.137000000     4.570000000    -2.177000000
H     1.306000000     5.211000000    -1.895000000
O    -0.389000000     4.045000000    -3.270000000
H     0.204000000     2.260000000    -2.392000000
C    -1.540000000     0.982000000    -4.640000000
C    -2.490000000     2.191000000    -4.601000000
H    -3.481000000     2.121000000    -5.055000000
H    -1.959000000     2.900000000    -5.240000000
C    -2.626000000     2.830000000    -3.239000000
C    -1.629000000     3.770000000    -2.708000000
C    -1.847000000     4.317000000    -1.437000000
H    -1.058000000     4.929000000    -1.008000000
C    -2.795000000     3.635000000    -0.657000000
O    -2.906000000     3.968000000     0.647000000
C    -2.475000000     2.926000000     1.575000000
H    -1.947000000     2.133000000     1.025000000
C    -1.548000000     3.424000000     2.673000000
C    -1.683000000     3.007000000     3.997000000
H    -2.423000000     2.262000000     4.279000000
C    -0.405000000     4.121000000     2.314000000
H    -0.237000000     4.410000000     1.280000000
C     0.417000000     4.528000000     3.368000000
O     1.621000000     5.278000000     3.078000000
C     0.219000000     4.229000000     4.721000000
H     0.892000000     4.567000000     5.504000000
C    -0.902000000     3.475000000     5.040000000
O    -1.012000000     3.022000000     6.336000000
C    -1.263000000     1.712000000     6.718000000
C    -0.851000000     0.599000000     5.992000000
H    -0.129000000     0.744000000     5.192000000
C    -2.048000000     1.591000000     7.856000000
H    -2.435000000     2.466000000     8.371000000
C    -2.469000000     0.312000000     8.290000000
H    -2.964000000     0.181000000     9.249000000
C    -2.006000000    -0.793000000     7.630000000
H    -2.235000000    -1.768000000     8.052000000
C    -1.137000000    -0.656000000     6.556000000
O    -0.182000000    -1.658000000     6.236000000
C    -0.319000000    -2.599000000     5.241000000
C     0.328000000    -3.902000000     5.227000000
H     0.872000000    -4.219000000     6.113000000
C     0.125000000    -4.704000000     4.118000000
O     0.884000000    -5.840000000     4.010000000
C     1.645000000    -6.279000000     2.918000000
C     2.382000000    -5.410000000     2.191000000
H     2.290000000    -4.335000000     2.329000000
C     1.505000000    -7.584000000     2.568000000
H     0.872000000    -8.242000000     3.159000000
C     2.281000000    -8.095000000     1.588000000
H     2.361000000    -9.174000000     1.486000000
C     3.049000000    -7.275000000     0.772000000
H     3.677000000    -7.671000000    -0.022000000
C     3.037000000    -5.911000000     1.079000000
O     3.849000000    -4.968000000     0.427000000
C     3.712000000    -4.495000000    -0.843000000
C     4.857000000    -4.144000000    -1.557000000
H     5.839000000    -4.416000000    -1.180000000
C     4.708000000    -3.308000000    -2.678000000
O     5.816000000    -2.645000000    -3.201000000
C     5.797000000    -1.388000000    -3.836000000
C     5.512000000    -0.332000000    -2.962000000
H     5.291000000    -0.555000000    -1.921000000
C     5.801000000    -1.287000000    -5.256000000
H     5.706000000    -2.075000000    -5.999000000
C     5.682000000    -0.025000000    -5.787000000
H     5.751000000     0.142000000    -6.859000000
C     5.488000000     1.039000000    -4.871000000
H     5.394000000     2.051000000    -5.256000000
C     5.397000000     0.907000000    -3.506000000
O     5.311000000     2.020000000    -2.689000000
C     4.233000000     2.816000000    -2.568000000
C     4.538000000     4.090000000    -2.107000000
H     5.571000000     4.411000000    -1.992000000
C     3.448000000     4.891000000    -1.826000000
O     3.644000000     6.075000000    -1.162000000
C     2.849000000     6.480000000    -0.157000000
C     2.100000000     7.598000000    -0.347000000
H     2.300000000     8.186000000    -1.239000000
C     1.119000000     7.941000000     0.561000000
H     0.521000000     8.832000000     0.391000000
C     0.909000000     7.041000000     1.653000000
H     0.124000000     7.277000000     2.366000000
C     1.812000000     6.039000000     1.954000000
C     2.717000000     5.683000000     0.958000000
H     3.300000000     4.783000000     1.137000000
C     1.206000000    -0.446000000     2.488000000
H     1.074000000    -0.520000000     3.565000000
C     0.094000000    -0.181000000     1.699000000
H    -0.887000000    -0.149000000     2.166000000
C     0.195000000    -0.077000000     0.320000000
C    -0.978000000     0.107000000    -0.555000000
H    -1.836000000    -0.311000000    -0.026000000
H    -1.178000000     1.128000000    -0.887000000
H    -0.841000000    -0.392000000    -1.517000000
C     1.398000000    -0.296000000    -0.297000000
H     1.520000000    -0.144000000    -1.366000000
C     2.507000000    -0.560000000     0.503000000
H     3.433000000    -0.648000000    -0.060000000
C     2.443000000    -0.596000000     1.931000000
C     3.603000000    -0.784000000     2.837000000
O     4.724000000    -0.669000000     2.378000000
O     3.430000000    -1.018000000     3.991000000
O     4.947000000     1.675000000     0.602000000
H     4.908000000     0.766000000     0.901000000
H     4.163000000     2.082000000     0.970000000
O     6.304000000    -1.799000000     5.901000000
H     5.697000000    -2.413000000     5.488000000
H     6.417000000    -1.102000000     5.255000000
O     2.757000000     1.326000000     4.958000000
H     2.865000000     0.404000000     4.725000000
H     3.143000000     1.805000000     4.224000000
O     4.390000000    -2.965000000     9.021000000
H     4.152000000    -2.585000000     8.176000000
H     5.000000000    -2.335000000     9.405000000
O     2.168000000     3.068000000     7.072000000
H     1.758000000     2.920000000     7.924000000
H     1.614000000     2.593000000     6.453000000
O     1.577000000    -0.869000000     8.649000000
H     1.119000000    -1.654000000     8.952000000
H     1.835000000    -1.075000000     7.751000000
O     9.288000000    -1.805000000     3.206000000
H     9.306000000    -0.870000000     3.413000000
H     8.382000000    -1.976000000     2.950000000
O     5.063000000    -4.097000000     5.694000000
H     5.645000000    -4.598000000     6.264000000
H     5.260000000    -4.413000000     4.813000000
O     8.378000000     1.765000000     6.347000000
H     9.040000000     2.097000000     5.741000000
H     7.692000000     1.410000000     5.782000000
O     8.636000000     0.884000000     3.067000000
H     8.917000000     1.794000000     3.161000000
H     7.768000000     0.858000000     3.468000000
O     7.685000000    -0.756000000    -0.085000000
H     7.731000000    -1.606000000    -0.523000000
H     7.342000000    -0.954000000     0.787000000
O     7.334000000     1.931000000    -0.943000000
H     7.376000000     1.095000000    -0.478000000
H     6.398000000     2.124000000    -1.005000000
O     6.095000000     4.033000000     1.934000000
H     6.073000000     3.187000000     1.487000000
H     7.011000000     4.305000000     1.889000000
O     6.228000000     0.571000000     4.313000000
H     5.616000000     1.159000000     4.755000000
H     5.672000000     0.007000000     3.775000000
O     5.581000000    -4.933000000     2.715000000
H     4.801000000    -5.013000000     2.165000000
H     6.234000000    -5.487000000     2.287000000
O     6.745000000    -2.295000000     2.597000000
H     6.436000000    -3.200000000     2.579000000
H     5.946000000    -1.768000000     2.591000000
O     4.051000000     2.792000000     3.213000000
H     4.918000000     2.950000000     2.838000000
H     3.672000000     3.665000000     3.316000000
O     2.928000000    -1.878000000     6.566000000
H     3.645000000    -2.508000000     6.645000000
H     3.062000000    -1.468000000     5.712000000
O     4.606000000     0.828000000     7.439000000
H     4.695000000    -0.013000000     6.990000000
H     3.903000000     1.277000000     6.969000000
