218
-1457.16982
C    -0.933000000    -3.806000000     2.531000000
H    -0.921000000    -4.199000000     1.518000000
C    -1.868000000    -2.882000000     3.013000000
C    -1.722000000    -2.376000000     4.274000000
H    -2.375000000    -1.567000000     4.592000000
C    -2.792000000    -2.165000000     1.996000000
O    -3.459000000    -3.107000000     1.109000000
H    -2.037000000    -1.560000000     1.473000000
O    -3.862000000    -1.396000000     2.618000000
C    -3.955000000    -0.140000000     2.248000000
C    -3.394000000     0.878000000     2.985000000
H    -3.005000000     0.635000000     3.971000000
C    -3.291000000     2.140000000     2.383000000
O    -2.529000000     3.072000000     3.034000000
C    -4.013000000     2.528000000     1.237000000
C    -4.032000000     3.929000000     0.721000000
H    -4.882000000     4.211000000     0.097000000
C    -2.723000000     3.929000000    -0.085000000
C    -2.834000000     3.626000000    -1.420000000
H    -3.803000000     3.253000000    -1.743000000
H    -3.977000000     4.649000000     1.539000000
C    -4.637000000     1.519000000     0.549000000
H    -5.065000000     1.633000000    -0.444000000
C    -4.598000000     0.169000000     1.059000000
C    -5.337000000    -0.912000000     0.385000000
H    -6.173000000    -0.438000000    -0.134000000
H    -5.755000000    -1.561000000     1.157000000
C    -4.381000000    -1.598000000    -0.597000000
C    -4.347000000    -1.150000000    -1.941000000
H    -5.006000000    -0.314000000    -2.160000000
C    -3.548000000    -2.680000000    -0.233000000
C    -2.754000000    -3.339000000    -1.170000000
H    -2.089000000    -4.158000000    -0.906000000
C    -2.776000000    -2.983000000    -2.513000000
O    -1.811000000    -3.554000000    -3.282000000
C    -0.581000000    -2.880000000    -3.549000000
C     0.687000000    -3.714000000    -3.437000000
C     1.903000000    -3.201000000    -3.875000000
H     1.863000000    -2.280000000    -4.451000000
C     0.779000000    -4.819000000    -2.579000000
H    -0.086000000    -5.252000000    -2.082000000
O    -0.746000000    -2.154000000    -4.814000000
H    -0.474000000    -2.102000000    -2.778000000
C    -3.611000000    -1.896000000    -2.932000000
C    -3.588000000    -1.395000000    -4.372000000
H    -4.515000000    -0.902000000    -4.669000000
H    -3.400000000    -2.232000000    -5.047000000
C    -2.446000000    -0.404000000    -4.555000000
C    -2.680000000     0.937000000    -4.251000000
H    -3.743000000     1.137000000    -4.136000000
C    -1.091000000    -0.814000000    -4.702000000
C    -0.081000000     0.128000000    -4.567000000
H     0.952000000    -0.200000000    -4.644000000
C    -0.305000000     1.432000000    -4.254000000
O     0.707000000     2.334000000    -4.146000000
C     1.059000000     2.693000000    -2.735000000
C     2.525000000     2.562000000    -2.568000000
C     3.351000000     2.004000000    -3.564000000
H     2.937000000     1.735000000    -4.532000000
C     3.146000000     2.999000000    -1.393000000
H     2.492000000     3.607000000    -0.773000000
O     0.666000000     4.003000000    -2.374000000
H     0.577000000     1.906000000    -2.135000000
C    -1.631000000     1.866000000    -4.143000000
C    -1.839000000     3.288000000    -3.731000000
H    -2.854000000     3.524000000    -4.057000000
H    -1.244000000     4.000000000    -4.307000000
C    -1.715000000     3.632000000    -2.282000000
C    -0.503000000     4.093000000    -1.706000000
C    -0.406000000     4.503000000    -0.399000000
H     0.579000000     4.743000000    -0.006000000
C    -1.535000000     4.473000000     0.388000000
O    -1.400000000     4.697000000     1.717000000
C    -1.255000000     3.499000000     2.543000000
H    -0.908000000     2.715000000     1.854000000
C    -0.146000000     3.560000000     3.644000000
C    -0.229000000     2.769000000     4.801000000
H    -1.136000000     2.173000000     4.873000000
C     1.005000000     4.386000000     3.434000000
H     1.184000000     4.867000000     2.475000000
C     2.003000000     4.381000000     4.386000000
O     3.226000000     4.953000000     4.105000000
C     1.869000000     3.689000000     5.605000000
H     2.695000000     3.618000000     6.309000000
C     0.803000000     2.844000000     5.794000000
O     0.753000000     1.953000000     6.781000000
C    -0.201000000     0.978000000     7.106000000
C     0.072000000    -0.378000000     6.746000000
H     0.987000000    -0.720000000     6.269000000
C    -1.414000000     1.368000000     7.684000000
H    -1.684000000     2.380000000     7.972000000
C    -2.359000000     0.380000000     7.927000000
H    -3.327000000     0.690000000     8.313000000
C    -2.125000000    -0.990000000     7.552000000
H    -2.947000000    -1.689000000     7.681000000
C    -0.903000000    -1.328000000     6.977000000
O    -0.637000000    -2.619000000     6.522000000
C    -0.818000000    -2.989000000     5.178000000
C     0.073000000    -3.929000000     4.670000000
H     0.800000000    -4.410000000     5.318000000
C    -0.011000000    -4.360000000     3.369000000
O     0.883000000    -5.345000000     2.954000000
C     0.617000000    -6.148000000     1.855000000
C     1.401000000    -6.042000000     0.682000000
H     2.212000000    -5.333000000     0.532000000
C    -0.451000000    -7.050000000     1.844000000
H    -1.153000000    -7.025000000     2.674000000
C    -0.709000000    -7.894000000     0.743000000
H    -1.531000000    -8.596000000     0.626000000
C     0.142000000    -7.767000000    -0.376000000
H    -0.039000000    -8.398000000    -1.243000000
C     1.205000000    -6.875000000    -0.459000000
O     1.955000000    -6.710000000    -1.610000000
C     1.985000000    -5.540000000    -2.334000000
C     3.079000000    -5.137000000    -3.001000000
H     4.037000000    -5.633000000    -2.867000000
C     3.064000000    -3.967000000    -3.753000000
O     4.249000000    -3.527000000    -4.272000000
C     4.500000000    -2.314000000    -4.898000000
C     4.765000000    -1.124000000    -4.216000000
H     4.771000000    -1.099000000    -3.129000000
C     4.574000000    -2.312000000    -6.263000000
H     4.490000000    -3.224000000    -6.848000000
C     4.921000000    -1.180000000    -6.995000000
H     5.180000000    -1.223000000    -8.050000000
C     5.330000000    -0.023000000    -6.212000000
H     5.778000000     0.827000000    -6.720000000
C     5.034000000     0.034000000    -4.886000000
O     5.400000000     1.143000000    -4.213000000
C     4.660000000     1.795000000    -3.280000000
C     5.239000000     2.194000000    -2.094000000
H     6.263000000     1.851000000    -1.974000000
C     4.514000000     2.831000000    -1.153000000
O     5.078000000     3.245000000    -0.010000000
C     4.512000000     4.231000000     0.717000000
C     4.458000000     5.518000000     0.182000000
H     4.852000000     5.556000000    -0.830000000
C     3.947000000     6.632000000     0.911000000
H     3.960000000     7.600000000     0.415000000
C     3.423000000     6.382000000     2.174000000
H     3.034000000     7.242000000     2.712000000
C     3.576000000     5.107000000     2.787000000
C     4.104000000     4.029000000     2.040000000
H     4.304000000     3.070000000     2.512000000
C     1.505000000    -1.270000000     2.255000000
H     1.746000000    -1.258000000     3.315000000
C     0.406000000    -0.542000000     1.823000000
H    -0.154000000     0.111000000     2.487000000
C     0.092000000    -0.467000000     0.430000000
C    -0.973000000     0.495000000    -0.048000000
H    -0.779000000     1.517000000     0.284000000
H    -0.928000000     0.497000000    -1.139000000
H    -1.933000000     0.048000000     0.220000000
C     0.783000000    -1.234000000    -0.468000000
H     0.552000000    -1.111000000    -1.523000000
C     1.852000000    -2.011000000    -0.027000000
H     2.343000000    -2.545000000    -0.836000000
C     2.195000000    -2.014000000     1.310000000
C     3.316000000    -2.852000000     1.653000000
O     3.949000000    -3.333000000     0.777000000
O     3.811000000    -2.851000000     2.764000000
O     8.147000000    -4.214000000     4.102000000
H     8.832000000    -4.735000000     4.522000000
H     8.542000000    -3.916000000     3.283000000
O     5.045000000    -0.665000000     0.470000000
H     5.312000000    -1.287000000    -0.207000000
H     4.337000000    -1.109000000     0.937000000
O     5.150000000    -5.214000000     6.842000000
H     5.895000000    -5.769000000     7.071000000
H     5.139000000    -5.210000000     5.885000000
O     3.954000000    -8.212000000     0.968000000
H     4.160000000    -7.518000000     0.342000000
H     4.128000000    -7.821000000     1.824000000
O     6.172000000    -2.546000000     6.718000000
H     6.398000000    -2.200000000     5.854000000
H     5.813000000    -3.416000000     6.540000000
O     5.181000000    -4.771000000     4.086000000
H     6.053000000    -4.512000000     3.787000000
H     4.588000000    -4.156000000     3.655000000
O     4.754000000    -5.797000000    -0.244000000
H     5.639000000    -5.801000000     0.121000000
H     4.421000000    -4.920000000    -0.053000000
O     4.060000000    -7.177000000     3.485000000
H     3.414000000    -7.017000000     4.174000000
H     4.522000000    -6.343000000     3.393000000
O     8.510000000    -2.500000000    -1.041000000
H     7.575000000    -2.642000000    -1.184000000
H     8.581000000    -1.571000000    -0.820000000
O     8.942000000    -3.462000000     1.403000000
H     8.491000000    -2.993000000     0.701000000
H     9.853000000    -3.178000000     1.333000000
O     7.258000000    -5.715000000     1.126000000
H     7.758000000    -4.927000000     1.339000000
H     6.873000000    -5.987000000     1.959000000
O     5.269000000    -2.657000000    -1.438000000
H     4.767000000    -3.007000000    -2.173000000
H     4.882000000    -3.068000000    -0.665000000
O     3.784000000    -1.525000000     5.080000000
H     4.477000000    -0.865000000     5.074000000
H     3.715000000    -1.809000000     4.168000000
O     5.811000000     0.392000000     4.684000000
H     6.455000000    -0.310000000     4.776000000
H     5.958000000     0.738000000     3.803000000
O     7.898000000    -1.598000000     4.561000000
H     8.115000000    -2.524000000     4.454000000
H     8.741000000    -1.147000000     4.514000000
O     2.685000000   -10.133000000     2.655000000
H     2.809000000    -9.293000000     2.212000000
H     1.738000000   -10.199000000     2.782000000
O     6.706000000     1.161000000     2.298000000
H     6.239000000     0.699000000     1.603000000
H     7.459000000     1.558000000     1.859000000
O     2.808000000    -2.407000000     7.348000000
H     3.032000000    -3.303000000     7.098000000
H     3.042000000    -1.880000000     6.584000000
O     4.192000000    -8.975000000    -1.715000000
H     3.541000000    -8.530000000    -2.258000000
H     3.903000000    -8.815000000    -0.816000000
