218
-1468.07258
C    -2.663000000    -4.069000000     1.980000000
H    -2.808000000    -4.578000000     1.030000000
C    -3.122000000    -2.706000000     2.109000000
C    -2.986000000    -2.082000000     3.347000000
H    -3.329000000    -1.072000000     3.556000000
C    -3.519000000    -1.929000000     0.862000000
O    -4.042000000    -2.840000000    -0.126000000
H    -2.591000000    -1.495000000     0.461000000
O    -4.544000000    -0.953000000     1.250000000
C    -4.470000000     0.248000000     0.608000000
C    -4.015000000     1.284000000     1.350000000
H    -3.621000000     1.049000000     2.335000000
C    -3.800000000     2.573000000     0.866000000
O    -3.161000000     3.461000000     1.729000000
C    -3.978000000     2.815000000    -0.494000000
C    -3.623000000     4.142000000    -1.145000000
H    -4.267000000     4.343000000    -2.004000000
C    -2.186000000     4.243000000    -1.540000000
C    -1.757000000     3.995000000    -2.881000000
H    -2.455000000     3.785000000    -3.687000000
H    -3.955000000     4.980000000    -0.530000000
C    -4.541000000     1.819000000    -1.285000000
H    -4.736000000     1.970000000    -2.343000000
C    -4.862000000     0.504000000    -0.721000000
C    -5.402000000    -0.635000000    -1.600000000
H    -5.959000000    -0.213000000    -2.439000000
H    -6.127000000    -1.053000000    -0.900000000
C    -4.208000000    -1.442000000    -2.060000000
C    -3.545000000    -1.004000000    -3.174000000
H    -3.816000000     0.005000000    -3.476000000
C    -3.675000000    -2.554000000    -1.367000000
C    -2.605000000    -3.274000000    -1.885000000
H    -2.180000000    -4.103000000    -1.325000000
C    -1.942000000    -2.811000000    -3.013000000
O    -0.836000000    -3.508000000    -3.435000000
C     0.426000000    -2.915000000    -3.081000000
C     1.413000000    -3.876000000    -2.453000000
C     2.786000000    -3.600000000    -2.412000000
H     3.123000000    -2.671000000    -2.865000000
C     0.948000000    -5.055000000    -1.953000000
H    -0.102000000    -5.325000000    -2.032000000
O     0.956000000    -2.312000000    -4.315000000
H     0.180000000    -2.161000000    -2.319000000
C    -2.386000000    -1.670000000    -3.676000000
C    -1.754000000    -1.300000000    -4.957000000
H    -2.531000000    -0.927000000    -5.628000000
H    -1.529000000    -2.257000000    -5.432000000
C    -0.518000000    -0.471000000    -4.837000000
C    -0.759000000     0.911000000    -4.811000000
H    -1.736000000     1.369000000    -4.940000000
C     0.760000000    -0.930000000    -4.533000000
C     1.770000000    -0.045000000    -4.175000000
H     2.789000000    -0.389000000    -4.017000000
C     1.506000000     1.309000000    -4.187000000
O     2.500000000     2.102000000    -3.769000000
C     2.368000000     2.568000000    -2.435000000
C     3.647000000     2.497000000    -1.615000000
C     4.684000000     1.616000000    -1.972000000
H     4.565000000     0.897000000    -2.778000000
C     3.899000000     3.444000000    -0.638000000
H     3.126000000     4.124000000    -0.290000000
O     1.816000000     3.968000000    -2.432000000
H     1.715000000     1.945000000    -1.806000000
C     0.242000000     1.850000000    -4.514000000
C     0.026000000     3.373000000    -4.536000000
H    -0.652000000     3.535000000    -5.377000000
H     0.921000000     3.886000000    -4.896000000
C    -0.392000000     3.882000000    -3.098000000
C     0.514000000     4.210000000    -2.149000000
C     0.117000000     4.597000000    -0.866000000
H     0.945000000     4.566000000    -0.162000000
C    -1.262000000     4.570000000    -0.517000000
O    -1.540000000     4.755000000     0.827000000
C    -1.697000000     3.571000000     1.615000000
H    -1.283000000     2.753000000     1.006000000
C    -0.974000000     3.512000000     2.983000000
C    -1.523000000     2.842000000     4.092000000
H    -2.548000000     2.490000000     4.008000000
C     0.163000000     4.180000000     3.108000000
H     0.517000000     4.680000000     2.210000000
C     0.903000000     4.244000000     4.289000000
O     1.944000000     5.139000000     4.429000000
C     0.369000000     3.616000000     5.408000000
H     0.978000000     3.632000000     6.309000000
C    -0.821000000     2.914000000     5.344000000
O    -1.243000000     2.249000000     6.454000000
C    -2.210000000     1.282000000     6.441000000
C    -2.050000000     0.056000000     5.734000000
H    -1.157000000    -0.138000000     5.145000000
C    -3.236000000     1.403000000     7.385000000
H    -3.421000000     2.293000000     7.981000000
C    -4.154000000     0.353000000     7.592000000
H    -4.834000000     0.385000000     8.440000000
C    -3.882000000    -0.895000000     6.990000000
H    -4.340000000    -1.816000000     7.341000000
C    -2.847000000    -1.018000000     6.058000000
O    -2.462000000    -2.275000000     5.682000000
C    -2.492000000    -2.807000000     4.449000000
C    -2.008000000    -4.132000000     4.237000000
H    -1.724000000    -4.688000000     5.127000000
C    -2.108000000    -4.736000000     3.020000000
O    -1.574000000    -6.044000000     2.928000000
C    -1.277000000    -6.680000000     1.698000000
C    -0.070000000    -6.494000000     1.010000000
H     0.503000000    -5.640000000     1.362000000
C    -2.239000000    -7.555000000     1.198000000
H    -3.249000000    -7.633000000     1.591000000
C    -1.901000000    -8.361000000     0.070000000
H    -2.504000000    -9.107000000    -0.442000000
C    -0.663000000    -8.253000000    -0.517000000
H    -0.388000000    -8.803000000    -1.413000000
C     0.164000000    -7.247000000    -0.100000000
O     1.286000000    -7.108000000    -0.825000000
C     1.795000000    -5.917000000    -1.280000000
C     3.203000000    -5.637000000    -1.271000000
H     3.933000000    -6.340000000    -0.877000000
C     3.673000000    -4.410000000    -1.760000000
O     5.011000000    -4.043000000    -1.645000000
C     5.561000000    -2.967000000    -2.160000000
C     5.942000000    -1.847000000    -1.393000000
H     5.732000000    -1.682000000    -0.339000000
C     5.922000000    -3.027000000    -3.488000000
H     5.651000000    -3.875000000    -4.112000000
C     6.697000000    -2.014000000    -4.123000000
H     6.919000000    -1.931000000    -5.184000000
C     7.024000000    -0.870000000    -3.344000000
H     7.429000000    -0.019000000    -3.886000000
C     6.561000000    -0.730000000    -2.061000000
O     6.800000000     0.480000000    -1.399000000
C     5.846000000     1.453000000    -1.151000000
C     5.999000000     2.306000000    -0.073000000
H     6.753000000     2.151000000     0.693000000
C     5.104000000     3.362000000     0.107000000
O     5.331000000     4.312000000     1.145000000
C     4.325000000     5.111000000     1.695000000
C     4.428000000     6.443000000     1.501000000
H     5.180000000     6.808000000     0.806000000
C     3.586000000     7.351000000     2.112000000
H     3.618000000     8.418000000     1.909000000
C     2.764000000     6.837000000     3.094000000
H     2.088000000     7.538000000     3.576000000
C     2.767000000     5.469000000     3.377000000
C     3.542000000     4.575000000     2.671000000
H     3.609000000     3.536000000     2.982000000
C     0.613000000    -1.372000000     1.786000000
H     0.364000000    -1.573000000     2.825000000
C    -0.216000000    -0.574000000     1.004000000
H    -1.219000000    -0.371000000     1.369000000
C     0.221000000    -0.227000000    -0.275000000
C    -0.657000000     0.603000000    -1.245000000
H    -1.675000000     0.666000000    -0.854000000
H    -0.236000000     1.607000000    -1.327000000
H    -0.698000000     0.125000000    -2.226000000
C     1.413000000    -0.689000000    -0.818000000
H     1.703000000    -0.337000000    -1.805000000
C     2.211000000    -1.480000000    -0.035000000
H     3.168000000    -1.759000000    -0.469000000
C     1.862000000    -1.813000000     1.315000000
C     2.791000000    -2.633000000     2.190000000
O     3.915000000    -2.758000000     1.788000000
O     2.499000000    -3.013000000     3.281000000
O     2.322000000     1.346000000     1.500000000
H     2.661000000     1.261000000     2.392000000
H     1.729000000     0.602000000     1.397000000
O     3.727000000    -8.208000000     1.502000000
H     3.018000000    -8.812000000     1.723000000
H     3.285000000    -7.383000000     1.301000000
O     6.589000000    -4.748000000     4.272000000
H     6.473000000    -3.968000000     3.729000000
H     6.890000000    -4.410000000     5.116000000
O     5.444000000    -4.926000000     1.092000000
H     5.018000000    -4.072000000     1.155000000
H     6.188000000    -4.780000000     0.508000000
O     1.747000000     0.228000000     6.559000000
H     2.446000000     0.524000000     7.142000000
H     0.996000000     0.777000000     6.787000000
O     0.782000000    -2.162000000     5.681000000
H     0.905000000    -1.383000000     6.224000000
H     1.529000000    -2.157000000     5.082000000
O     3.043000000    -5.715000000     2.786000000
H     3.875000000    -5.536000000     2.348000000
H     2.738000000    -4.857000000     3.081000000
O     5.810000000     1.684000000     3.742000000
H     5.212000000     1.145000000     3.224000000
H     5.861000000     1.240000000     4.588000000
O     6.271000000    -2.581000000     2.961000000
H     6.211000000    -2.008000000     3.725000000
H     5.393000000    -2.566000000     2.580000000
O     5.961000000    -0.599000000     5.346000000
H     5.122000000    -1.012000000     5.140000000
H     5.924000000    -0.440000000     6.289000000
O     6.565000000    -7.619000000     1.509000000
H     5.644000000    -7.875000000     1.470000000
H     6.562000000    -6.682000000     1.315000000
O     3.728000000    -2.168000000     5.477000000
H     3.379000000    -2.410000000     4.619000000
H     3.499000000    -2.905000000     6.044000000
O     2.927000000     0.651000000     4.057000000
H     2.966000000     1.559000000     4.358000000
H     2.716000000     0.147000000     4.843000000
O     3.075000000    -4.187000000     7.049000000
H     3.266000000    -5.124000000     7.054000000
H     2.125000000    -4.137000000     6.939000000
O     4.141000000    -6.404000000     5.261000000
H     4.922000000    -6.019000000     4.865000000
H     3.446000000    -6.248000000     4.621000000
O     0.483000000    -3.531000000     7.926000000
H     0.440000000    -3.034000000     7.110000000
H     0.226000000    -2.904000000     8.602000000
O     4.655000000    -0.169000000     1.560000000
H     3.847000000     0.297000000     1.343000000
H     4.402000000    -1.092000000     1.578000000
O     0.974000000    -7.817000000     3.656000000
H     1.135000000    -8.678000000     3.270000000
H     1.716000000    -7.284000000     3.370000000
O     8.244000000    -0.608000000     1.068000000
H     7.450000000    -0.332000000     0.611000000
H     7.938000000    -0.895000000     1.928000000
