218
-1453.21362
C    -1.869000000    -3.409000000     3.113000000
H    -1.748000000    -4.015000000     2.220000000
C    -2.602000000    -2.239000000     3.059000000
C    -2.644000000    -1.363000000     4.175000000
H    -3.185000000    -0.423000000     4.114000000
C    -3.278000000    -1.831000000     1.762000000
O    -3.810000000    -2.922000000     0.978000000
H    -2.619000000    -1.293000000     1.065000000
O    -4.367000000    -0.880000000     2.007000000
C    -4.388000000     0.195000000     1.164000000
C    -3.996000000     1.421000000     1.680000000
H    -3.729000000     1.486000000     2.731000000
C    -3.824000000     2.499000000     0.865000000
O    -3.180000000     3.585000000     1.374000000
C    -4.134000000     2.425000000    -0.522000000
C    -3.874000000     3.575000000    -1.512000000
H    -4.557000000     3.445000000    -2.354000000
C    -2.480000000     3.516000000    -2.068000000
C    -2.244000000     2.840000000    -3.255000000
H    -3.034000000     2.352000000    -3.819000000
H    -4.013000000     4.581000000    -1.109000000
C    -4.646000000     1.200000000    -1.025000000
H    -5.007000000     1.134000000    -2.049000000
C    -4.800000000     0.090000000    -0.168000000
C    -5.365000000    -1.249000000    -0.686000000
H    -6.097000000    -1.039000000    -1.469000000
H    -5.923000000    -1.764000000     0.099000000
C    -4.328000000    -2.157000000    -1.293000000
C    -3.975000000    -2.184000000    -2.635000000
H    -4.504000000    -1.449000000    -3.236000000
C    -3.660000000    -2.970000000    -0.371000000
C    -2.608000000    -3.790000000    -0.737000000
H    -2.086000000    -4.421000000    -0.022000000
C    -2.214000000    -3.683000000    -2.096000000
O    -1.028000000    -4.365000000    -2.405000000
C     0.251000000    -3.599000000    -2.351000000
C     1.474000000    -4.348000000    -1.732000000
C     2.808000000    -4.087000000    -2.041000000
H     3.033000000    -3.249000000    -2.695000000
C     1.275000000    -5.388000000    -0.862000000
H     0.271000000    -5.803000000    -0.828000000
O     0.603000000    -3.222000000    -3.680000000
H     0.160000000    -2.725000000    -1.689000000
C    -2.833000000    -2.907000000    -3.039000000
C    -2.245000000    -2.683000000    -4.423000000
H    -3.059000000    -2.226000000    -4.990000000
H    -2.004000000    -3.611000000    -4.947000000
C    -1.029000000    -1.686000000    -4.470000000
C    -1.325000000    -0.344000000    -4.709000000
H    -2.304000000    -0.084000000    -5.103000000
C     0.292000000    -1.999000000    -4.157000000
C     1.348000000    -1.099000000    -4.208000000
H     2.396000000    -1.326000000    -4.031000000
C     1.077000000     0.209000000    -4.504000000
O     2.061000000     1.105000000    -4.370000000
C     2.026000000     1.981000000    -3.136000000
C     3.384000000     2.137000000    -2.472000000
C     4.421000000     1.234000000    -2.746000000
H     4.376000000     0.615000000    -3.638000000
C     3.642000000     3.064000000    -1.465000000
H     2.850000000     3.779000000    -1.258000000
O     1.427000000     3.228000000    -3.427000000
H     1.467000000     1.579000000    -2.278000000
C    -0.285000000     0.556000000    -4.811000000
C    -0.640000000     2.024000000    -5.038000000
H    -1.569000000     2.048000000    -5.612000000
H     0.086000000     2.643000000    -5.569000000
C    -0.919000000     2.792000000    -3.703000000
C     0.144000000     3.375000000    -2.986000000
C    -0.140000000     4.046000000    -1.792000000
H     0.661000000     4.545000000    -1.252000000
C    -1.441000000     4.132000000    -1.301000000
O    -1.620000000     4.708000000    -0.101000000
C    -1.744000000     3.824000000     1.054000000
H    -1.243000000     2.884000000     0.779000000
C    -0.963000000     4.336000000     2.161000000
C    -1.283000000     3.921000000     3.484000000
H    -2.105000000     3.224000000     3.623000000
C     0.084000000     5.179000000     1.958000000
H     0.438000000     5.489000000     0.978000000
C     0.774000000     5.627000000     3.094000000
O     1.859000000     6.361000000     2.966000000
C     0.444000000     5.252000000     4.345000000
H     1.036000000     5.586000000     5.193000000
C    -0.600000000     4.353000000     4.543000000
O    -0.755000000     3.821000000     5.799000000
C    -1.687000000     2.887000000     6.067000000
C    -1.284000000     1.521000000     6.046000000
H    -0.301000000     1.247000000     5.670000000
C    -3.007000000     3.221000000     6.374000000
H    -3.377000000     4.243000000     6.345000000
C    -3.961000000     2.236000000     6.585000000
H    -5.001000000     2.465000000     6.802000000
C    -3.597000000     0.887000000     6.483000000
H    -4.344000000     0.143000000     6.748000000
C    -2.260000000     0.509000000     6.287000000
O    -1.960000000    -0.824000000     6.356000000
C    -1.880000000    -1.672000000     5.309000000
C    -1.332000000    -2.959000000     5.377000000
H    -0.728000000    -3.269000000     6.226000000
C    -1.332000000    -3.827000000     4.319000000
O    -0.611000000    -5.021000000     4.442000000
C    -0.559000000    -5.893000000     3.444000000
C     0.652000000    -5.931000000     2.724000000
H     1.406000000    -5.174000000     2.921000000
C    -1.637000000    -6.713000000     3.050000000
H    -2.508000000    -6.671000000     3.699000000
C    -1.569000000    -7.357000000     1.844000000
H    -2.498000000    -7.731000000     1.421000000
C    -0.357000000    -7.512000000     1.162000000
H    -0.360000000    -8.095000000     0.244000000
C     0.753000000    -6.767000000     1.590000000
O     1.957000000    -6.858000000     0.946000000
C     2.232000000    -5.905000000    -0.003000000
C     3.596000000    -5.546000000    -0.265000000
H     4.453000000    -5.906000000     0.297000000
C     3.887000000    -4.604000000    -1.250000000
O     5.140000000    -4.094000000    -1.454000000
C     5.512000000    -3.075000000    -2.342000000
C     5.843000000    -1.857000000    -1.887000000
H     5.906000000    -1.611000000    -0.830000000
C     5.521000000    -3.380000000    -3.703000000
H     5.034000000    -4.273000000    -4.086000000
C     5.996000000    -2.377000000    -4.620000000
H     6.006000000    -2.427000000    -5.706000000
C     6.406000000    -1.168000000    -4.088000000
H     6.776000000    -0.347000000    -4.696000000
C     6.340000000    -0.894000000    -2.784000000
O     6.640000000     0.354000000    -2.314000000
C     5.546000000     1.149000000    -1.937000000
C     5.683000000     1.925000000    -0.764000000
H     6.533000000     1.784000000    -0.101000000
C     4.820000000     2.986000000    -0.655000000
O     4.899000000     3.596000000     0.516000000
C     4.349000000     4.822000000     0.705000000
C     4.727000000     5.912000000    -0.016000000
H     5.525000000     5.760000000    -0.738000000
C     4.107000000     7.119000000     0.112000000
H     4.399000000     8.010000000    -0.439000000
C     3.250000000     7.275000000     1.187000000
H     2.883000000     8.256000000     1.476000000
C     2.766000000     6.216000000     1.876000000
C     3.363000000     4.934000000     1.669000000
H     3.065000000     4.057000000     2.238000000
C     1.136000000    -1.409000000     2.763000000
H     0.810000000    -1.474000000     3.798000000
C     0.309000000    -0.720000000     1.868000000
H    -0.513000000    -0.118000000     2.248000000
C     0.574000000    -0.585000000     0.503000000
C    -0.230000000     0.286000000    -0.385000000
H    -1.219000000     0.466000000     0.041000000
H     0.259000000     1.254000000    -0.512000000
H    -0.360000000    -0.101000000    -1.398000000
C     1.825000000    -0.989000000     0.098000000
H     2.229000000    -0.709000000    -0.871000000
C     2.712000000    -1.724000000     0.941000000
H     3.588000000    -2.194000000     0.502000000
C     2.367000000    -1.970000000     2.289000000
C     3.207000000    -2.661000000     3.247000000
O     4.347000000    -2.892000000     2.975000000
O     2.844000000    -2.832000000     4.376000000
O     5.653000000     0.931000000     3.041000000
H     5.134000000     0.896000000     3.845000000
H     5.101000000     1.406000000     2.420000000
O     0.904000000     0.112000000     8.170000000
H     0.225000000    -0.296000000     8.707000000
H     1.218000000    -0.593000000     7.604000000
O     8.078000000    -3.792000000     4.710000000
H     7.603000000    -4.622000000     4.663000000
H     8.061000000    -3.558000000     5.638000000
O     5.006000000    -5.532000000     3.062000000
H     5.681000000    -5.493000000     2.384000000
H     4.733000000    -4.622000000     3.180000000
O     4.677000000    -8.164000000     3.602000000
H     4.482000000    -7.254000000     3.377000000
H     4.753000000    -8.163000000     4.557000000
O     4.498000000    -7.245000000     6.490000000
H     3.847000000    -7.614000000     7.087000000
H     4.220000000    -6.337000000     6.366000000
O     8.281000000    -6.323000000     1.291000000
H     7.780000000    -5.508000000     1.264000000
H     8.845000000    -6.233000000     2.059000000
O     6.432000000    -4.197000000     1.249000000
H     6.171000000    -3.485000000     1.834000000
H     6.027000000    -3.978000000     0.410000000
O     5.822000000    -0.946000000     7.689000000
H     6.730000000    -1.172000000     7.488000000
H     5.303000000    -1.489000000     7.096000000
O     2.303000000    -1.966000000     6.728000000
H     2.707000000    -2.712000000     7.171000000
H     2.316000000    -2.202000000     5.800000000
O     3.032000000    -4.911000000     6.070000000
H     2.280000000    -5.058000000     6.644000000
H     2.741000000    -4.232000000     5.463000000
O     7.361000000    -1.011000000     4.899000000
H     6.532000000    -0.864000000     5.354000000
H     7.415000000    -1.962000000     4.801000000
O     6.682000000    -6.133000000     5.162000000
H     5.975000000    -5.811000000     4.602000000
H     6.247000000    -6.717000000     5.784000000
O     5.069000000    -2.955000000     6.023000000
H     4.553000000    -3.086000000     5.227000000
H     4.688000000    -3.562000000     6.658000000
O     3.986000000     0.455000000     5.186000000
H     3.486000000     1.041000000     5.754000000
H     3.470000000    -0.350000000     5.156000000
O     1.512000000    -8.924000000     3.902000000
H     1.260000000    -9.569000000     3.241000000
H     1.832000000    -8.176000000     3.398000000
O     1.458000000    -4.930000000     8.297000000
H     1.580000000    -4.532000000     9.158000000
H     1.968000000    -5.739000000     8.332000000
O     6.220000000    -1.441000000     2.115000000
H     6.118000000    -0.536000000     2.410000000
H     5.440000000    -1.888000000     2.443000000
O     8.692000000    -1.756000000     0.916000000
H     7.805000000    -1.461000000     1.126000000
H     9.163000000    -1.706000000     1.748000000
