218
-1455.60531
C    -1.863000000    -4.659000000     2.524000000
H    -1.964000000    -5.307000000     1.657000000
C    -2.346000000    -3.338000000     2.628000000
C    -2.213000000    -2.557000000     3.802000000
H    -2.598000000    -1.547000000     3.917000000
C    -3.075000000    -2.695000000     1.407000000
O    -3.460000000    -3.661000000     0.393000000
H    -2.252000000    -2.081000000     1.013000000
O    -4.155000000    -1.975000000     1.827000000
C    -4.322000000    -0.739000000     1.234000000
C    -3.772000000     0.392000000     1.869000000
H    -3.371000000     0.295000000     2.875000000
C    -3.834000000     1.626000000     1.229000000
O    -3.190000000     2.597000000     1.930000000
C    -4.391000000     1.817000000    -0.033000000
C    -4.491000000     3.244000000    -0.738000000
H    -5.295000000     3.169000000    -1.473000000
C    -3.166000000     3.526000000    -1.343000000
C    -2.989000000     3.064000000    -2.624000000
H    -3.771000000     2.546000000    -3.174000000
H    -4.793000000     3.885000000     0.093000000
C    -4.900000000     0.711000000    -0.593000000
H    -5.373000000     0.871000000    -1.559000000
C    -4.827000000    -0.563000000    -0.011000000
C    -5.263000000    -1.742000000    -0.908000000
H    -6.010000000    -1.353000000    -1.603000000
H    -5.683000000    -2.558000000    -0.316000000
C    -4.096000000    -2.408000000    -1.606000000
C    -3.692000000    -2.110000000    -2.909000000
H    -4.335000000    -1.434000000    -3.465000000
C    -3.383000000    -3.457000000    -0.959000000
C    -2.250000000    -4.003000000    -1.524000000
H    -1.610000000    -4.581000000    -0.863000000
C    -1.786000000    -3.653000000    -2.746000000
O    -0.527000000    -4.114000000    -2.984000000
C     0.558000000    -3.078000000    -2.799000000
C     1.873000000    -3.691000000    -2.354000000
C     3.119000000    -3.242000000    -2.822000000
H     3.264000000    -2.502000000    -3.605000000
C     1.864000000    -4.608000000    -1.316000000
H     0.920000000    -4.730000000    -0.791000000
O     0.675000000    -2.513000000    -4.172000000
H     0.314000000    -2.287000000    -2.075000000
C    -2.517000000    -2.682000000    -3.441000000
C    -2.120000000    -2.155000000    -4.797000000
H    -2.974000000    -1.931000000    -5.440000000
H    -1.572000000    -2.919000000    -5.352000000
C    -1.112000000    -1.063000000    -4.521000000
C    -1.520000000     0.265000000    -4.546000000
H    -2.576000000     0.443000000    -4.732000000
C     0.243000000    -1.216000000    -4.360000000
C     1.077000000    -0.105000000    -4.162000000
H     2.084000000    -0.260000000    -3.783000000
C     0.591000000     1.174000000    -4.242000000
O     1.474000000     2.156000000    -3.913000000
C     1.390000000     2.813000000    -2.630000000
C     2.799000000     3.091000000    -2.060000000
C     3.660000000     2.008000000    -2.032000000
H     3.499000000     1.150000000    -2.680000000
C     3.005000000     4.210000000    -1.275000000
H     2.260000000     4.997000000    -1.187000000
O     0.634000000     4.027000000    -2.706000000
H     0.887000000     2.113000000    -1.946000000
C    -0.742000000     1.392000000    -4.508000000
C    -1.402000000     2.796000000    -4.543000000
H    -2.270000000     2.796000000    -5.207000000
H    -0.747000000     3.471000000    -5.098000000
C    -1.672000000     3.226000000    -3.135000000
C    -0.692000000     3.917000000    -2.403000000
C    -0.942000000     4.376000000    -1.134000000
H    -0.182000000     4.989000000    -0.655000000
C    -2.139000000     4.128000000    -0.588000000
O    -2.180000000     4.404000000     0.739000000
C    -1.954000000     3.209000000     1.526000000
H    -1.342000000     2.504000000     0.945000000
C    -1.147000000     3.642000000     2.776000000
C    -1.200000000     2.873000000     3.919000000
H    -1.833000000     1.990000000     3.897000000
C    -0.293000000     4.688000000     2.804000000
H    -0.111000000     5.297000000     1.922000000
C     0.520000000     4.985000000     3.876000000
O     1.313000000     6.127000000     3.794000000
C     0.356000000     4.282000000     5.057000000
H     0.982000000     4.510000000     5.916000000
C    -0.444000000     3.209000000     5.029000000
O    -0.371000000     2.402000000     6.101000000
C    -1.232000000     1.317000000     6.304000000
C    -0.782000000     0.016000000     6.078000000
H     0.191000000    -0.170000000     5.630000000
C    -2.601000000     1.511000000     6.503000000
H    -2.988000000     2.523000000     6.582000000
C    -3.469000000     0.428000000     6.782000000
H    -4.503000000     0.644000000     7.040000000
C    -2.956000000    -0.830000000     6.529000000
H    -3.758000000    -1.560000000     6.614000000
C    -1.664000000    -1.078000000     6.170000000
O    -1.228000000    -2.391000000     6.038000000
C    -1.449000000    -3.069000000     4.872000000
C    -0.847000000    -4.347000000     4.686000000
H    -0.234000000    -4.854000000     5.427000000
C    -1.067000000    -5.100000000     3.517000000
O    -0.410000000    -6.377000000     3.475000000
C     0.307000000    -6.860000000     2.439000000
C     1.427000000    -6.180000000     1.897000000
H     1.710000000    -5.260000000     2.402000000
C    -0.170000000    -7.954000000     1.745000000
H    -1.092000000    -8.395000000     2.116000000
C     0.339000000    -8.368000000     0.516000000
H    -0.228000000    -9.132000000    -0.011000000
C     1.459000000    -7.740000000     0.026000000
H     1.960000000    -8.075000000    -0.878000000
C     1.987000000    -6.651000000     0.717000000
O     3.148000000    -6.072000000     0.230000000
C     3.092000000    -5.254000000    -0.891000000
C     4.329000000    -4.897000000    -1.488000000
H     5.223000000    -5.376000000    -1.096000000
C     4.342000000    -3.915000000    -2.411000000
O     5.586000000    -3.442000000    -2.741000000
C     5.822000000    -2.081000000    -2.936000000
C     5.705000000    -1.190000000    -1.855000000
H     5.542000000    -1.526000000    -0.834000000
C     6.177000000    -1.653000000    -4.234000000
H     6.098000000    -2.325000000    -5.085000000
C     6.501000000    -0.308000000    -4.386000000
H     6.896000000     0.077000000    -5.322000000
C     6.344000000     0.597000000    -3.360000000
H     6.759000000     1.588000000    -3.527000000
C     5.939000000     0.184000000    -2.104000000
O     5.750000000     1.127000000    -1.108000000
C     4.854000000     2.162000000    -1.343000000
C     5.112000000     3.296000000    -0.533000000
H     5.957000000     3.291000000     0.150000000
C     4.183000000     4.317000000    -0.566000000
O     4.493000000     5.437000000     0.149000000
C     3.516000000     6.170000000     0.820000000
C     3.168000000     7.394000000     0.305000000
H     3.592000000     7.723000000    -0.641000000
C     2.349000000     8.280000000     0.968000000
H     2.021000000     9.247000000     0.594000000
C     1.706000000     7.856000000     2.120000000
H     1.065000000     8.535000000     2.676000000
C     1.901000000     6.515000000     2.614000000
C     2.830000000     5.667000000     1.967000000
H     2.995000000     4.662000000     2.346000000
C     1.138000000    -1.680000000     2.796000000
H     0.898000000    -1.668000000     3.856000000
C     0.350000000    -0.942000000     1.896000000
H    -0.609000000    -0.609000000     2.284000000
C     0.811000000    -0.758000000     0.577000000
C     0.014000000     0.073000000    -0.471000000
H     0.584000000     0.149000000    -1.400000000
H    -0.943000000    -0.423000000    -0.648000000
H     0.019000000     1.103000000    -0.109000000
C     2.099000000    -1.276000000     0.213000000
H     2.398000000    -1.155000000    -0.824000000
C     2.875000000    -2.061000000     1.149000000
H     3.819000000    -2.431000000     0.757000000
C     2.433000000    -2.244000000     2.432000000
C     3.347000000    -3.008000000     3.278000000
O     4.486000000    -3.267000000     2.931000000
O     3.012000000    -3.391000000     4.393000000
O     6.467000000    -1.487000000     2.967000000
H     6.975000000    -1.769000000     2.206000000
H     5.810000000    -2.173000000     3.084000000
O     8.327000000    -5.810000000     1.942000000
H     7.429000000    -5.512000000     2.087000000
H     8.611000000    -5.341000000     1.158000000
O     2.649000000    -5.896000000     5.143000000
H     1.853000000    -6.017000000     4.627000000
H     2.875000000    -4.973000000     5.022000000
O     4.307000000     0.872000000     2.415000000
H     4.545000000    -0.055000000     2.440000000
H     3.381000000     0.876000000     2.172000000
O     8.392000000    -3.704000000     4.591000000
H     8.793000000    -4.507000000     4.925000000
H     8.473000000    -3.079000000     5.312000000
O     4.912000000    -9.042000000     1.345000000
H     4.196000000    -9.607000000     1.634000000
H     4.916000000    -8.321000000     1.974000000
O     6.695000000    -0.604000000     5.556000000
H     7.466000000    -1.127000000     5.775000000
H     6.467000000    -0.873000000     4.666000000
O     5.357000000    -6.586000000     6.743000000
H     4.418000000    -6.506000000     6.909000000
H     5.505000000    -6.072000000     5.950000000
O     1.235000000    -1.264000000     9.017000000
H     0.966000000    -1.759000000     8.243000000
H     1.683000000    -0.494000000     8.666000000
O     5.865000000    -1.791000000     8.351000000
H     5.943000000    -1.366000000     7.497000000
H     6.193000000    -2.678000000     8.207000000
O     6.977000000     2.014000000     2.430000000
H     6.154000000     1.586000000     2.198000000
H     6.740000000     2.632000000     3.121000000
O     7.701000000    -2.374000000     0.704000000
H     8.297000000    -2.095000000     0.009000000
H     7.546000000    -3.302000000     0.529000000
O     3.174000000    -0.081000000     5.391000000
H     2.636000000    -0.819000000     5.677000000
H     4.059000000    -0.438000000     5.331000000
O     2.493000000    -2.420000000     6.771000000
H     2.668000000    -3.068000000     7.454000000
H     2.541000000    -2.916000000     5.953000000
O     2.956000000    -4.168000000     8.838000000
H     2.968000000    -3.496000000     9.520000000
H     3.708000000    -4.725000000     9.038000000
O     3.816000000     2.603000000     5.134000000
H     4.103000000     2.239000000     4.297000000
H     3.583000000     1.838000000     5.661000000
O     5.626000000    -4.842000000     4.776000000
H     4.934000000    -4.206000000     4.597000000
H     6.402000000    -4.479000000     4.347000000
O     4.597000000    -7.318000000     3.473000000
H     4.633000000    -6.634000000     4.141000000
H     3.929000000    -7.926000000     3.790000000
O     5.745000000    -5.109000000     1.861000000
H     5.385000000    -5.829000000     2.379000000
H     5.188000000    -4.360000000     2.073000000
