218
-1479.67803
C    -1.634000000    -5.273000000    -0.240000000
H    -1.141000000    -5.190000000    -1.205000000
C    -2.650000000    -4.388000000     0.140000000
C    -3.044000000    -4.401000000     1.445000000
H    -3.849000000    -3.776000000     1.823000000
C    -3.062000000    -3.277000000    -0.796000000
O    -3.021000000    -3.651000000    -2.179000000
H    -2.287000000    -2.521000000    -0.603000000
O    -4.346000000    -2.742000000    -0.440000000
C    -4.453000000    -1.412000000    -0.604000000
C    -4.424000000    -0.635000000     0.584000000
H    -4.353000000    -1.185000000     1.520000000
C    -4.561000000     0.769000000     0.624000000
O    -4.376000000     1.432000000     1.785000000
C    -4.659000000     1.432000000    -0.636000000
C    -4.738000000     2.934000000    -0.705000000
H    -5.234000000     3.171000000    -1.648000000
C    -3.393000000     3.566000000    -0.664000000
C    -2.739000000     3.871000000    -1.861000000
H    -3.155000000     3.624000000    -2.834000000
H    -5.402000000     3.271000000     0.094000000
C    -4.447000000     0.698000000    -1.804000000
H    -4.200000000     1.271000000    -2.694000000
C    -4.370000000    -0.722000000    -1.829000000
C    -4.420000000    -1.400000000    -3.118000000
H    -4.893000000    -0.739000000    -3.848000000
H    -5.028000000    -2.307000000    -3.099000000
C    -2.970000000    -1.726000000    -3.604000000
C    -2.272000000    -0.797000000    -4.388000000
H    -2.775000000     0.106000000    -4.725000000
C    -2.307000000    -2.853000000    -3.071000000
C    -0.960000000    -3.121000000    -3.408000000
H    -0.431000000    -3.985000000    -3.016000000
C    -0.309000000    -2.161000000    -4.156000000
O     1.102000000    -2.273000000    -4.303000000
C     1.840000000    -1.331000000    -3.506000000
C     3.078000000    -1.966000000    -2.867000000
C     4.203000000    -1.229000000    -2.451000000
H     4.273000000    -0.144000000    -2.456000000
C     3.100000000    -3.359000000    -2.553000000
H     2.221000000    -3.926000000    -2.849000000
O     2.258000000    -0.207000000    -4.374000000
H     1.174000000    -0.904000000    -2.742000000
C    -0.923000000    -0.965000000    -4.608000000
C    -0.235000000     0.019000000    -5.488000000
H    -0.899000000     0.430000000    -6.252000000
H     0.534000000    -0.419000000    -6.128000000
C     0.307000000     1.155000000    -4.692000000
C    -0.445000000     2.304000000    -4.423000000
H    -1.474000000     2.294000000    -4.772000000
C     1.574000000     0.940000000    -4.094000000
C     2.088000000     1.901000000    -3.243000000
H     3.048000000     1.834000000    -2.738000000
C     1.411000000     3.106000000    -3.053000000
O     1.960000000     4.003000000    -2.177000000
C     1.639000000     3.929000000    -0.857000000
C     2.711000000     4.080000000     0.189000000
C     4.003000000     3.843000000    -0.202000000
H     4.263000000     3.490000000    -1.196000000
C     2.423000000     4.209000000     1.586000000
H     1.385000000     4.280000000     1.903000000
O     0.633000000     4.888000000    -0.588000000
H     1.293000000     2.911000000    -0.625000000
C     0.121000000     3.275000000    -3.581000000
C    -0.721000000     4.481000000    -3.221000000
H    -1.493000000     4.542000000    -3.991000000
H    -0.052000000     5.342000000    -3.176000000
C    -1.414000000     4.291000000    -1.844000000
C    -0.776000000     4.581000000    -0.630000000
C    -1.436000000     4.394000000     0.597000000
H    -0.939000000     4.570000000     1.547000000
C    -2.769000000     3.847000000     0.587000000
O    -3.299000000     3.444000000     1.733000000
C    -3.080000000     2.091000000     2.017000000
H    -2.223000000     1.682000000     1.462000000
C    -2.599000000     1.822000000     3.440000000
C    -2.831000000     0.577000000     4.021000000
H    -3.313000000    -0.131000000     3.352000000
C    -1.737000000     2.697000000     4.125000000
H    -1.557000000     3.635000000     3.606000000
C    -1.294000000     2.418000000     5.416000000
O    -0.683000000     3.295000000     6.285000000
C    -1.605000000     1.203000000     5.952000000
H    -1.282000000     1.039000000     6.977000000
C    -2.323000000     0.257000000     5.309000000
O    -2.355000000    -1.026000000     5.854000000
C    -3.182000000    -2.030000000     5.353000000
C    -2.612000000    -3.192000000     4.710000000
H    -1.535000000    -3.192000000     4.560000000
C    -4.550000000    -1.848000000     5.367000000
H    -5.008000000    -0.961000000     5.797000000
C    -5.346000000    -2.860000000     4.940000000
H    -6.430000000    -2.801000000     4.984000000
C    -4.842000000    -4.075000000     4.499000000
H    -5.541000000    -4.897000000     4.367000000
C    -3.451000000    -4.212000000     4.336000000
O    -2.916000000    -5.354000000     3.692000000
C    -2.526000000    -5.326000000     2.390000000
C    -1.524000000    -6.188000000     2.021000000
H    -1.194000000    -6.992000000     2.673000000
C    -1.104000000    -6.148000000     0.679000000
O    -0.100000000    -7.041000000     0.313000000
C     0.842000000    -6.836000000    -0.735000000
C     1.831000000    -5.875000000    -0.626000000
H     1.820000000    -5.061000000     0.095000000
C     0.877000000    -7.804000000    -1.742000000
H     0.137000000    -8.600000000    -1.782000000
C     1.935000000    -7.737000000    -2.638000000
H     2.216000000    -8.629000000    -3.192000000
C     3.049000000    -6.923000000    -2.445000000
H     3.918000000    -6.926000000    -3.099000000
C     2.959000000    -6.006000000    -1.481000000
O     4.090000000    -5.222000000    -1.339000000
C     4.065000000    -3.893000000    -1.741000000
C     5.146000000    -3.112000000    -1.389000000
H     5.973000000    -3.584000000    -0.865000000
C     5.235000000    -1.838000000    -1.741000000
O     6.257000000    -1.079000000    -1.182000000
C     6.504000000     0.238000000    -1.395000000
C     6.340000000     1.242000000    -0.466000000
H     5.996000000     0.998000000     0.536000000
C     6.974000000     0.595000000    -2.676000000
H     6.962000000    -0.160000000    -3.459000000
C     7.304000000     1.948000000    -2.902000000
H     7.636000000     2.332000000    -3.863000000
C     7.223000000     2.895000000    -1.947000000
H     7.402000000     3.951000000    -2.131000000
C     6.715000000     2.526000000    -0.669000000
O     6.285000000     3.474000000     0.283000000
C     4.985000000     3.707000000     0.746000000
C     4.725000000     3.891000000     2.124000000
H     5.540000000     3.839000000     2.841000000
C     3.465000000     4.216000000     2.510000000
O     3.246000000     4.271000000     3.872000000
C     2.099000000     4.704000000     4.484000000
C     2.121000000     5.967000000     4.990000000
H     3.051000000     6.515000000     4.864000000
C     1.133000000     6.387000000     5.854000000
H     1.080000000     7.415000000     6.204000000
C     0.090000000     5.531000000     6.176000000
H    -0.743000000     5.811000000     6.815000000
C     0.143000000     4.238000000     5.776000000
C     1.124000000     3.824000000     4.888000000
H     1.148000000     2.779000000     4.588000000
C     0.605000000    -2.145000000     1.386000000
H     0.233000000    -3.064000000     1.832000000
C    -0.246000000    -1.181000000     0.857000000
H    -1.300000000    -1.407000000     0.997000000
C     0.211000000    -0.184000000    -0.006000000
C    -0.748000000     0.706000000    -0.785000000
H    -0.358000000     0.825000000    -1.798000000
H    -1.748000000     0.288000000    -0.920000000
H    -0.780000000     1.668000000    -0.271000000
C     1.590000000     0.066000000    -0.092000000
H     1.975000000     0.918000000    -0.646000000
C     2.459000000    -0.979000000     0.368000000
H     3.544000000    -0.927000000     0.319000000
C     1.972000000    -2.086000000     1.106000000
C     2.910000000    -3.085000000     1.727000000
O     4.132000000    -2.911000000     1.663000000
O     2.527000000    -3.915000000     2.456000000
O     4.809000000    -3.456000000     4.538000000
H     4.338000000    -3.465000000     3.705000000
H     4.590000000    -4.294000000     4.946000000
O     4.347000000    -8.421000000     2.061000000
H     3.415000000    -8.483000000     2.273000000
H     4.466000000    -7.517000000     1.770000000
O     8.757000000    -3.752000000     2.081000000
H     8.024000000    -3.137000000     2.112000000
H     9.523000000    -3.204000000     1.907000000
O     5.398000000    -1.201000000     5.930000000
H     5.326000000    -1.928000000     5.312000000
H     5.677000000    -1.609000000     6.749000000
O     1.663000000     0.423000000     3.585000000
H     2.568000000     0.503000000     3.285000000
H     1.196000000     0.045000000     2.839000000
O     6.800000000    -2.118000000     1.582000000
H     5.949000000    -2.553000000     1.639000000
H     6.829000000    -1.764000000     0.693000000
O     2.702000000    -0.016000000     6.032000000
H     2.193000000    -0.057000000     5.222000000
H     3.607000000     0.093000000     5.740000000
O     0.632000000    -8.077000000     6.248000000
H     1.480000000    -8.391000000     6.563000000
H     0.834000000    -7.620000000     5.432000000
O     4.435000000    -5.774000000     1.345000000
H     4.012000000    -5.490000000     0.535000000
H     4.479000000    -4.982000000     1.882000000
O     6.682000000     1.198000000     5.119000000
H     6.604000000     0.384000000     5.616000000
H     7.562000000     1.517000000     5.319000000
O     6.225000000    -7.293000000    -1.198000000
H     6.601000000    -7.056000000    -0.350000000
H     5.641000000    -6.565000000    -1.412000000
O     1.880000000    -8.292000000     3.261000000
H     1.074000000    -8.692000000     2.934000000
H     1.617000000    -7.416000000     3.540000000
O     4.493000000     0.328000000     3.535000000
H     4.762000000    -0.572000000     3.716000000
H     5.137000000     0.868000000     3.994000000
O     1.522000000    -3.038000000     5.081000000
H     1.733000000    -3.120000000     4.151000000
H     2.282000000    -2.595000000     5.460000000
O     1.222000000    -5.691000000     4.063000000
H     1.122000000    -4.962000000     4.675000000
H     1.584000000    -5.291000000     3.272000000
O     7.497000000    -3.679000000     6.409000000
H     8.098000000    -4.338000000     6.062000000
H     6.913000000    -3.479000000     5.677000000
O     4.342000000    -6.397000000     4.877000000
H     3.448000000    -6.592000000     5.159000000
H     4.453000000    -6.897000000     4.069000000
O     3.218000000    -5.439000000     7.464000000
H     2.975000000    -6.348000000     7.638000000
H     4.156000000    -5.402000000     7.649000000
O     7.135000000    -5.917000000     0.886000000
H     7.678000000    -5.378000000     1.461000000
H     6.285000000    -5.955000000     1.325000000
