218
-1470.33854
C    -1.586000000    -5.095000000     0.857000000
H    -1.468000000    -5.311000000    -0.201000000
C    -2.445000000    -4.051000000     1.262000000
C    -2.459000000    -3.733000000     2.647000000
H    -3.071000000    -2.876000000     2.917000000
C    -3.139000000    -3.147000000     0.276000000
O    -3.400000000    -3.749000000    -1.028000000
H    -2.350000000    -2.402000000     0.101000000
O    -4.301000000    -2.510000000     0.788000000
C    -4.419000000    -1.141000000     0.571000000
C    -4.281000000    -0.285000000     1.672000000
H    -3.912000000    -0.635000000     2.633000000
C    -4.258000000     1.088000000     1.387000000
O    -3.812000000     1.844000000     2.457000000
C    -4.476000000     1.600000000     0.143000000
C    -4.543000000     3.048000000    -0.076000000
H    -5.240000000     3.254000000    -0.892000000
C    -3.172000000     3.588000000    -0.534000000
C    -2.768000000     3.777000000    -1.828000000
H    -3.414000000     3.478000000    -2.650000000
H    -4.936000000     3.528000000     0.822000000
C    -4.619000000     0.719000000    -0.893000000
H    -4.871000000     1.166000000    -1.852000000
C    -4.767000000    -0.621000000    -0.662000000
C    -5.033000000    -1.510000000    -1.865000000
H    -5.727000000    -0.993000000    -2.531000000
H    -5.505000000    -2.446000000    -1.559000000
C    -3.812000000    -1.895000000    -2.645000000
C    -3.252000000    -1.138000000    -3.679000000
H    -3.831000000    -0.274000000    -3.994000000
C    -3.062000000    -2.983000000    -2.146000000
C    -1.741000000    -3.172000000    -2.604000000
H    -1.041000000    -3.834000000    -2.101000000
C    -1.212000000    -2.371000000    -3.609000000
O     0.088000000    -2.576000000    -3.950000000
C     1.101000000    -1.589000000    -3.597000000
C     2.341000000    -2.155000000    -2.960000000
C     3.601000000    -1.672000000    -3.256000000
H     3.650000000    -0.875000000    -3.994000000
C     2.296000000    -3.277000000    -2.116000000
H     1.381000000    -3.813000000    -1.880000000
O     1.392000000    -0.677000000    -4.684000000
H     0.657000000    -0.992000000    -2.787000000
C    -2.008000000    -1.346000000    -4.206000000
C    -1.504000000    -0.427000000    -5.341000000
H    -2.279000000    -0.040000000    -6.006000000
H    -1.032000000    -1.179000000    -5.977000000
C    -0.583000000     0.674000000    -4.935000000
C    -1.180000000     1.927000000    -4.569000000
H    -2.261000000     2.025000000    -4.632000000
C     0.769000000     0.466000000    -4.672000000
C     1.551000000     1.513000000    -4.134000000
H     2.576000000     1.312000000    -3.834000000
C     1.000000000     2.706000000    -3.875000000
O     1.894000000     3.623000000    -3.175000000
C     1.657000000     3.640000000    -1.725000000
C     2.918000000     3.567000000    -0.859000000
C     4.116000000     3.117000000    -1.447000000
H     4.101000000     2.988000000    -2.526000000
C     2.873000000     3.578000000     0.559000000
H     1.944000000     3.798000000     1.079000000
O     0.777000000     4.703000000    -1.344000000
H     1.066000000     2.729000000    -1.549000000
C    -0.391000000     2.973000000    -4.084000000
C    -0.987000000     4.267000000    -3.604000000
H    -1.924000000     4.471000000    -4.126000000
H    -0.339000000     5.121000000    -3.816000000
C    -1.476000000     4.169000000    -2.174000000
C    -0.535000000     4.449000000    -1.133000000
C    -0.972000000     4.309000000     0.209000000
H    -0.323000000     4.626000000     1.021000000
C    -2.216000000     3.882000000     0.478000000
O    -2.498000000     3.736000000     1.829000000
C    -2.469000000     2.377000000     2.419000000
H    -1.928000000     1.706000000     1.735000000
C    -1.928000000     2.295000000     3.845000000
C    -2.110000000     1.155000000     4.665000000
H    -2.663000000     0.298000000     4.289000000
C    -1.040000000     3.256000000     4.355000000
H    -1.005000000     4.204000000     3.824000000
C    -0.343000000     3.029000000     5.502000000
O     0.620000000     3.913000000     5.869000000
C    -0.677000000     1.982000000     6.364000000
H    -0.260000000     1.997000000     7.368000000
C    -1.614000000     1.058000000     5.998000000
O    -1.998000000     0.037000000     6.913000000
C    -2.720000000    -1.035000000     6.533000000
C    -2.069000000    -2.133000000     5.986000000
H    -0.982000000    -2.097000000     5.995000000
C    -4.151000000    -1.005000000     6.581000000
H    -4.666000000    -0.128000000     6.964000000
C    -4.792000000    -2.121000000     6.144000000
H    -5.868000000    -2.151000000     5.992000000
C    -4.122000000    -3.305000000     5.705000000
H    -4.709000000    -4.104000000     5.258000000
C    -2.754000000    -3.245000000     5.519000000
O    -1.997000000    -4.245000000     4.947000000
C    -1.905000000    -4.589000000     3.581000000
C    -1.082000000    -5.638000000     3.178000000
H    -0.593000000    -6.264000000     3.920000000
C    -0.979000000    -5.930000000     1.825000000
O    -0.199000000    -7.029000000     1.445000000
C     0.625000000    -6.966000000     0.417000000
C     1.688000000    -6.095000000     0.356000000
H     2.026000000    -5.553000000     1.235000000
C     0.223000000    -7.524000000    -0.787000000
H    -0.679000000    -8.122000000    -0.686000000
C     0.911000000    -7.375000000    -1.958000000
H     0.599000000    -7.787000000    -2.914000000
C     2.022000000    -6.538000000    -2.006000000
H     2.572000000    -6.255000000    -2.900000000
C     2.388000000    -5.856000000    -0.828000000
O     3.420000000    -4.921000000    -0.717000000
C     3.444000000    -3.849000000    -1.594000000
C     4.704000000    -3.243000000    -1.862000000
H     5.571000000    -3.679000000    -1.372000000
C     4.814000000    -2.193000000    -2.779000000
O     6.050000000    -1.808000000    -3.154000000
C     6.310000000    -0.478000000    -3.284000000
C     6.270000000     0.436000000    -2.206000000
H     5.795000000     0.211000000    -1.254000000
C     7.008000000    -0.051000000    -4.428000000
H     7.095000000    -0.787000000    -5.223000000
C     7.490000000     1.224000000    -4.546000000
H     7.950000000     1.573000000    -5.466000000
C     7.333000000     2.171000000    -3.539000000
H     7.767000000     3.167000000    -3.509000000
C     6.677000000     1.785000000    -2.405000000
O     6.518000000     2.633000000    -1.271000000
C     5.283000000     2.939000000    -0.701000000
C     5.248000000     3.115000000     0.620000000
H     6.134000000     3.063000000     1.248000000
C     4.085000000     3.511000000     1.259000000
O     4.111000000     3.647000000     2.674000000
C     3.152000000     4.383000000     3.264000000
C     2.776000000     5.614000000     2.853000000
H     3.304000000     5.982000000     1.977000000
C     1.729000000     6.383000000     3.373000000
H     1.466000000     7.375000000     3.016000000
C     1.048000000     5.756000000     4.433000000
H     0.099000000     6.152000000     4.785000000
C     1.404000000     4.491000000     4.904000000
C     2.453000000     3.764000000     4.284000000
H     2.836000000     2.793000000     4.589000000
C     0.770000000    -1.931000000     1.894000000
H     0.498000000    -2.535000000     2.755000000
C    -0.202000000    -1.161000000     1.272000000
H    -1.179000000    -1.214000000     1.747000000
C     0.064000000    -0.322000000     0.239000000
C    -0.973000000     0.537000000    -0.347000000
H    -0.583000000     1.543000000    -0.178000000
H    -0.956000000     0.396000000    -1.430000000
H    -1.942000000     0.335000000     0.114000000
C     1.432000000    -0.185000000    -0.139000000
H     1.698000000     0.611000000    -0.830000000
C     2.390000000    -1.030000000     0.373000000
H     3.431000000    -0.922000000     0.079000000
C     2.044000000    -1.922000000     1.410000000
C     3.161000000    -2.585000000     2.234000000
O     4.294000000    -2.350000000     2.018000000
O     2.734000000    -3.249000000     3.141000000
O     5.982000000    -4.991000000     1.566000000
H     5.887000000    -4.078000000     1.835000000
H     5.156000000    -5.200000000     1.130000000
O     6.211000000    -6.093000000     4.253000000
H     6.295000000    -5.535000000     3.480000000
H     5.269000000    -6.231000000     4.347000000
O     8.354000000     1.297000000     1.485000000
H     7.478000000     0.911000000     1.458000000
H     8.658000000     1.139000000     2.378000000
O     5.339000000     0.829000000     3.380000000
H     5.646000000     0.051000000     2.915000000
H     4.391000000     0.832000000     3.245000000
O     1.874000000     0.154000000     5.623000000
H     2.780000000     0.035000000     5.909000000
H     1.935000000     0.273000000     4.676000000
O     9.077000000    -2.376000000     3.774000000
H     8.142000000    -2.569000000     3.702000000
H     9.322000000    -2.700000000     4.641000000
O     6.336000000    -0.792000000     1.451000000
H     5.615000000    -1.402000000     1.605000000
H     6.764000000    -1.121000000     0.660000000
O     1.516000000    -1.363000000     7.909000000
H     1.433000000    -0.664000000     7.260000000
H     2.043000000    -2.033000000     7.473000000
O     3.392000000    -5.490000000     4.188000000
H     3.097000000    -5.258000000     5.068000000
H     3.129000000    -4.747000000     3.644000000
O     6.017000000    -8.562000000     1.977000000
H     5.887000000    -9.347000000     1.445000000
H     5.133000000    -8.239000000     2.148000000
O     4.997000000     0.447000000     6.008000000
H     5.428000000     0.575000000     5.163000000
H     5.437000000    -0.314000000     6.388000000
O     7.624000000    -6.829000000     0.133000000
H     8.270000000    -6.813000000     0.840000000
H     6.923000000    -6.251000000     0.436000000
O     2.594000000     0.746000000     3.068000000
H     2.728000000     1.635000000     2.740000000
H     2.416000000     0.226000000     2.284000000
O     2.977000000    -3.095000000     5.807000000
H     2.921000000    -3.200000000     4.858000000
H     3.855000000    -3.405000000     6.031000000
O     5.450000000    -3.936000000     6.274000000
H     6.011000000    -4.701000000     6.402000000
H     5.936000000    -3.213000000     6.672000000
O     6.109000000    -2.652000000     3.927000000
H     5.437000000    -2.584000000     3.249000000
H     5.703000000    -3.180000000     4.615000000
O     8.069000000    -2.649000000     0.332000000
H     8.596000000    -2.345000000     1.070000000
H     8.619000000    -3.301000000    -0.103000000
O     3.308000000    -8.013000000     3.214000000
H     3.271000000    -8.449000000     4.065000000
H     3.098000000    -7.099000000     3.404000000
O     0.824000000    -4.948000000     6.039000000
H     1.571000000    -4.459000000     6.383000000
H     0.367000000    -4.322000000     5.477000000
