218
-1455.36981
C    -1.407000000    -4.899000000     1.645000000
H    -1.748000000    -5.346000000     0.714000000
C    -1.864000000    -3.624000000     1.878000000
C    -1.392000000    -3.029000000     3.055000000
H    -1.526000000    -1.980000000     3.305000000
C    -2.811000000    -2.880000000     0.988000000
O    -3.313000000    -3.724000000    -0.114000000
H    -2.390000000    -1.986000000     0.506000000
O    -3.906000000    -2.349000000     1.688000000
C    -4.159000000    -1.044000000     1.468000000
C    -3.712000000    -0.124000000     2.416000000
H    -3.340000000    -0.486000000     3.371000000
C    -3.835000000     1.222000000     2.145000000
O    -3.265000000     1.997000000     3.105000000
C    -4.475000000     1.688000000     0.946000000
C    -4.437000000     3.149000000     0.642000000
H    -5.296000000     3.310000000    -0.012000000
C    -3.107000000     3.500000000     0.033000000
C    -2.970000000     3.480000000    -1.351000000
H    -3.848000000     3.241000000    -1.946000000
H    -4.737000000     3.797000000     1.468000000
C    -5.107000000     0.729000000     0.077000000
H    -5.784000000     1.144000000    -0.666000000
C    -4.815000000    -0.635000000     0.257000000
C    -5.347000000    -1.755000000    -0.693000000
H    -6.121000000    -1.361000000    -1.354000000
H    -5.765000000    -2.597000000    -0.137000000
C    -4.193000000    -2.109000000    -1.630000000
C    -3.982000000    -1.321000000    -2.828000000
H    -4.661000000    -0.488000000    -2.987000000
C    -3.257000000    -3.138000000    -1.330000000
C    -2.162000000    -3.383000000    -2.117000000
H    -1.457000000    -4.163000000    -1.844000000
C    -1.935000000    -2.638000000    -3.235000000
O    -0.813000000    -2.934000000    -4.023000000
C     0.225000000    -1.948000000    -3.900000000
C     1.584000000    -2.643000000    -3.789000000
C     2.798000000    -2.093000000    -4.220000000
H     2.818000000    -1.275000000    -4.936000000
C     1.595000000    -3.749000000    -2.948000000
H     0.652000000    -4.100000000    -2.537000000
O     0.159000000    -0.988000000    -5.010000000
H     0.037000000    -1.294000000    -3.036000000
C    -2.850000000    -1.579000000    -3.598000000
C    -2.637000000    -0.651000000    -4.785000000
H    -3.615000000    -0.261000000    -5.075000000
H    -2.423000000    -1.233000000    -5.683000000
C    -1.710000000     0.537000000    -4.646000000
C    -2.154000000     1.806000000    -4.318000000
H    -3.213000000     2.030000000    -4.223000000
C    -0.314000000     0.279000000    -4.756000000
C     0.612000000     1.295000000    -4.456000000
H     1.646000000     0.989000000    -4.315000000
C     0.179000000     2.523000000    -4.054000000
O     1.100000000     3.416000000    -3.591000000
C     1.253000000     3.435000000    -2.156000000
C     2.688000000     3.433000000    -1.681000000
C     3.728000000     2.994000000    -2.487000000
H     3.530000000     2.659000000    -3.502000000
C     2.873000000     3.744000000    -0.287000000
H     2.129000000     3.987000000     0.468000000
O     0.469000000     4.513000000    -1.620000000
H     0.679000000     2.556000000    -1.829000000
C    -1.218000000     2.826000000    -4.021000000
C    -1.784000000     4.090000000    -3.449000000
H    -2.713000000     4.268000000    -3.994000000
H    -1.103000000     4.916000000    -3.664000000
C    -1.875000000     4.085000000    -1.939000000
C    -0.777000000     4.465000000    -1.158000000
C    -0.790000000     4.251000000     0.226000000
H     0.045000000     4.507000000     0.873000000
C    -1.966000000     3.844000000     0.827000000
O    -2.158000000     3.794000000     2.229000000
C    -1.974000000     2.560000000     2.899000000
H    -1.376000000     1.843000000     2.317000000
C    -1.160000000     2.669000000     4.147000000
C    -1.544000000     1.812000000     5.186000000
H    -2.439000000     1.216000000     5.028000000
C     0.031000000     3.358000000     4.172000000
H     0.357000000     3.977000000     3.340000000
C     0.875000000     3.348000000     5.282000000
O     1.919000000     4.103000000     5.422000000
C     0.455000000     2.469000000     6.324000000
H     1.076000000     2.371000000     7.211000000
C    -0.676000000     1.643000000     6.227000000
O    -1.059000000     0.891000000     7.290000000
C    -1.442000000    -0.419000000     7.148000000
C    -0.559000000    -1.170000000     6.291000000
H     0.396000000    -0.808000000     5.917000000
C    -2.623000000    -0.971000000     7.664000000
H    -3.314000000    -0.432000000     8.306000000
C    -2.869000000    -2.301000000     7.363000000
H    -3.754000000    -2.734000000     7.820000000
C    -2.051000000    -3.055000000     6.460000000
H    -2.314000000    -4.079000000     6.206000000
C    -0.875000000    -2.439000000     5.933000000
O    -0.067000000    -3.120000000     5.036000000
C    -0.592000000    -3.710000000     3.946000000
C    -0.036000000    -4.951000000     3.543000000
H     0.672000000    -5.366000000     4.255000000
C    -0.466000000    -5.602000000     2.353000000
O     0.059000000    -6.843000000     1.897000000
C     0.492000000    -6.904000000     0.601000000
C     1.536000000    -6.159000000     0.182000000
H     2.051000000    -5.458000000     0.833000000
C    -0.217000000    -7.824000000    -0.267000000
H    -0.956000000    -8.531000000     0.103000000
C     0.220000000    -7.863000000    -1.592000000
H    -0.318000000    -8.484000000    -2.303000000
C     1.116000000    -6.943000000    -2.074000000
H     1.319000000    -6.918000000    -3.142000000
C     1.868000000    -6.200000000    -1.174000000
O     2.923000000    -5.436000000    -1.655000000
C     2.813000000    -4.383000000    -2.570000000
C     3.976000000    -3.745000000    -2.959000000
H     4.893000000    -4.275000000    -2.713000000
C     4.003000000    -2.589000000    -3.759000000
O     5.284000000    -2.115000000    -4.140000000
C     5.513000000    -0.817000000    -4.329000000
C     5.410000000     0.169000000    -3.344000000
H     5.008000000    -0.053000000    -2.359000000
C     6.018000000    -0.504000000    -5.614000000
H     6.020000000    -1.234000000    -6.419000000
C     6.362000000     0.801000000    -5.956000000
H     6.682000000     1.023000000    -6.971000000
C     6.394000000     1.775000000    -4.951000000
H     6.828000000     2.766000000    -5.055000000
C     5.825000000     1.480000000    -3.699000000
O     5.986000000     2.418000000    -2.641000000
C     4.975000000     2.858000000    -1.899000000
C     5.205000000     3.349000000    -0.642000000
H     6.149000000     3.081000000    -0.173000000
C     4.182000000     3.802000000     0.130000000
O     4.382000000     3.972000000     1.418000000
C     3.635000000     4.675000000     2.296000000
C     3.525000000     6.059000000     2.114000000
H     3.825000000     6.469000000     1.153000000
C     2.758000000     6.750000000     2.998000000
H     2.363000000     7.743000000     2.801000000
C     2.219000000     6.063000000     4.127000000
H     1.593000000     6.646000000     4.798000000
C     2.521000000     4.759000000     4.384000000
C     3.185000000     3.967000000     3.424000000
H     3.241000000     2.896000000     3.597000000
C     1.676000000    -2.411000000     0.267000000
H     1.627000000    -3.480000000     0.072000000
C     0.513000000    -1.681000000     0.009000000
H    -0.425000000    -2.206000000    -0.154000000
C     0.578000000    -0.326000000    -0.122000000
C    -0.650000000     0.420000000    -0.430000000
H    -1.520000000     0.113000000     0.154000000
H    -0.523000000     1.493000000    -0.274000000
H    -0.798000000     0.311000000    -1.507000000
C     1.746000000     0.385000000     0.235000000
H     1.878000000     1.462000000     0.181000000
C     2.875000000    -0.298000000     0.509000000
H     3.751000000     0.318000000     0.692000000
C     2.860000000    -1.707000000     0.578000000
C     4.076000000    -2.505000000     0.965000000
O     5.171000000    -1.999000000     0.881000000
O     3.907000000    -3.610000000     1.481000000
O     7.744000000    -3.413000000     6.679000000
H     7.462000000    -3.509000000     5.769000000
H     8.240000000    -4.211000000     6.861000000
O     5.510000000    -1.791000000     4.998000000
H     5.988000000    -1.745000000     5.826000000
H     4.908000000    -2.526000000     5.109000000
O     1.186000000    -1.085000000     3.089000000
H     1.541000000    -1.327000000     2.234000000
H     0.336000000    -1.523000000     3.128000000
O     7.668000000    -1.561000000     2.214000000
H     6.999000000    -1.590000000     1.530000000
H     7.181000000    -1.683000000     3.029000000
O     8.358000000    -4.838000000    -2.081000000
H     7.780000000    -4.776000000    -1.321000000
H     9.072000000    -5.407000000    -1.793000000
O     6.980000000    -5.532000000     4.426000000
H     7.481000000    -6.083000000     3.825000000
H     6.123000000    -5.955000000     4.482000000
O     4.643000000    -5.956000000     0.724000000
H     3.897000000    -5.984000000     0.125000000
H     4.507000000    -5.161000000     1.240000000
O     6.727000000    -1.733000000    -1.129000000
H     6.184000000    -1.833000000    -0.347000000
H     6.196000000    -2.099000000    -1.837000000
O     8.697000000     0.381000000    -0.923000000
H     8.047000000    -0.259000000    -1.215000000
H     8.312000000     0.772000000    -0.138000000
O     7.399000000     1.500000000     1.124000000
H     7.612000000     1.186000000     2.003000000
H     6.569000000     1.074000000     0.912000000
O     7.063000000    -4.687000000     0.552000000
H     6.568000000    -5.464000000     0.814000000
H     6.620000000    -3.961000000     0.991000000
O     6.158000000    -8.049000000     0.426000000
H     6.234000000    -8.064000000    -0.528000000
H     5.464000000    -7.413000000     0.601000000
O     5.917000000     0.774000000     4.152000000
H     6.739000000     1.013000000     4.579000000
H     5.715000000    -0.098000000     4.493000000
O     3.283000000    -3.466000000     4.052000000
H     2.391000000    -3.145000000     3.914000000
H     3.670000000    -3.480000000     3.177000000
O     3.351000000    -7.879000000     2.890000000
H     3.871000000    -7.586000000     2.142000000
H     3.727000000    -7.415000000     3.639000000
O     4.393000000    -5.896000000     4.816000000
H     4.078000000    -5.014000000     4.620000000
H     4.546000000    -5.892000000     5.761000000
O     2.874000000     0.506000000     4.564000000
H     3.751000000     0.520000000     4.180000000
H     2.351000000    -0.008000000     3.949000000
O     9.447000000    -3.476000000     1.017000000
H     8.704000000    -4.077000000     0.957000000
H     9.066000000    -2.656000000     1.331000000
O     2.968000000    -0.460000000     7.093000000
H     2.527000000    -1.302000000     7.204000000
H     2.786000000    -0.211000000     6.187000000
