218
-1476.87883
C    -5.122000000     1.219000000    -1.150000000
H    -4.900000000     2.063000000    -1.798000000
C    -4.543000000     1.054000000     0.132000000
C    -4.868000000    -0.056000000     0.948000000
H    -4.312000000    -0.318000000     1.844000000
C    -3.513000000     2.026000000     0.563000000
O    -3.545000000     3.288000000    -0.112000000
H    -2.522000000     1.581000000     0.386000000
O    -3.768000000     2.307000000     1.990000000
C    -2.607000000     2.385000000     2.806000000
C    -2.296000000     1.304000000     3.592000000
H    -2.968000000     0.450000000     3.560000000
C    -1.143000000     1.251000000     4.344000000
O    -0.869000000     0.135000000     5.015000000
C    -0.256000000     2.386000000     4.327000000
C     1.127000000     2.260000000     4.957000000
H     1.574000000     3.173000000     5.358000000
C     2.063000000     1.569000000     3.910000000
C     2.986000000     2.346000000     3.164000000
H     3.219000000     3.406000000     3.217000000
H     0.968000000     1.679000000     5.867000000
C    -0.538000000     3.460000000     3.575000000
H     0.150000000     4.299000000     3.508000000
C    -1.720000000     3.495000000     2.820000000
C    -2.040000000     4.751000000     2.025000000
H    -1.478000000     5.543000000     2.523000000
H    -3.106000000     4.989000000     2.032000000
C    -1.557000000     4.603000000     0.571000000
C    -0.254000000     5.013000000     0.193000000
H     0.356000000     5.512000000     0.942000000
C    -2.336000000     3.995000000    -0.389000000
C    -1.832000000     3.753000000    -1.699000000
H    -2.533000000     3.346000000    -2.423000000
C    -0.530000000     4.106000000    -2.027000000
O    -0.072000000     3.763000000    -3.259000000
C     0.875000000     2.700000000    -3.275000000
C     0.477000000     1.693000000    -4.339000000
C     1.508000000     1.093000000    -5.145000000
H     2.537000000     1.443000000    -5.109000000
C    -0.844000000     1.217000000    -4.531000000
H    -1.627000000     1.596000000    -3.879000000
O     2.249000000     3.233000000    -3.382000000
H     0.779000000     2.158000000    -2.322000000
C     0.287000000     4.746000000    -1.066000000
C     1.751000000     5.145000000    -1.320000000
H     2.004000000     5.965000000    -0.644000000
H     1.723000000     5.678000000    -2.273000000
C     2.794000000     4.066000000    -1.209000000
C     3.585000000     3.900000000    -0.041000000
H     3.547000000     4.575000000     0.810000000
C     2.993000000     3.147000000    -2.240000000
C     3.836000000     2.108000000    -2.151000000
H     3.898000000     1.416000000    -2.987000000
C     4.448000000     1.850000000    -0.899000000
O     5.013000000     0.657000000    -0.646000000
C     4.208000000    -0.304000000     0.071000000
C     4.017000000    -1.645000000    -0.591000000
C     4.476000000    -1.918000000    -1.923000000
H     5.192000000    -1.269000000    -2.421000000
C     3.283000000    -2.626000000     0.070000000
H     2.875000000    -2.331000000     1.032000000
O     4.712000000    -0.397000000     1.401000000
H     3.208000000     0.139000000     0.186000000
C     4.293000000     2.737000000     0.117000000
C     4.834000000     2.440000000     1.500000000
H     5.135000000     3.367000000     1.991000000
H     5.789000000     1.913000000     1.562000000
C     3.822000000     1.625000000     2.366000000
C     3.976000000     0.248000000     2.411000000
C     3.124000000    -0.486000000     3.158000000
H     3.109000000    -1.572000000     3.107000000
C     2.188000000     0.172000000     3.959000000
O     1.411000000    -0.612000000     4.777000000
C     0.003000000    -0.867000000     4.418000000
H    -0.043000000    -0.728000000     3.328000000
C    -0.456000000    -2.227000000     4.740000000
C    -1.864000000    -2.538000000     4.749000000
H    -2.612000000    -1.750000000     4.796000000
C     0.500000000    -3.246000000     4.776000000
H     1.566000000    -3.039000000     4.808000000
C     0.003000000    -4.580000000     4.778000000
O     0.920000000    -5.545000000     4.798000000
C    -1.367000000    -4.893000000     4.806000000
H    -1.617000000    -5.934000000     4.995000000
C    -2.304000000    -3.887000000     4.752000000
O    -3.649000000    -4.201000000     4.797000000
C    -4.649000000    -3.398000000     4.330000000
C    -5.014000000    -3.356000000     2.977000000
H    -4.739000000    -4.205000000     2.357000000
C    -5.240000000    -2.510000000     5.252000000
H    -4.899000000    -2.549000000     6.283000000
C    -6.106000000    -1.525000000     4.813000000
H    -6.675000000    -0.955000000     5.543000000
C    -6.434000000    -1.468000000     3.463000000
H    -7.016000000    -0.641000000     3.062000000
C    -5.809000000    -2.288000000     2.528000000
O    -6.096000000    -2.174000000     1.187000000
C    -5.831000000    -0.971000000     0.506000000
C    -6.389000000    -0.768000000    -0.787000000
H    -7.180000000    -1.431000000    -1.129000000
C    -5.974000000     0.299000000    -1.655000000
O    -6.408000000     0.454000000    -2.968000000
C    -5.647000000     0.797000000    -4.031000000
C    -4.447000000     0.135000000    -4.318000000
H    -3.942000000    -0.659000000    -3.774000000
C    -6.095000000     1.866000000    -4.816000000
H    -7.069000000     2.294000000    -4.595000000
C    -5.360000000     2.345000000    -5.863000000
H    -5.777000000     3.110000000    -6.514000000
C    -4.170000000     1.689000000    -6.165000000
H    -3.699000000     2.047000000    -7.077000000
C    -3.664000000     0.590000000    -5.416000000
O    -2.479000000    -0.136000000    -5.708000000
C    -1.163000000     0.281000000    -5.498000000
C    -0.121000000    -0.231000000    -6.247000000
H    -0.335000000    -0.830000000    -7.128000000
C     1.181000000     0.074000000    -6.044000000
O     2.199000000    -0.408000000    -6.864000000
C     3.320000000    -1.141000000    -6.432000000
C     3.332000000    -1.791000000    -5.218000000
H     2.467000000    -1.782000000    -4.559000000
C     4.479000000    -1.135000000    -7.266000000
H     4.413000000    -0.609000000    -8.215000000
C     5.669000000    -1.751000000    -6.796000000
H     6.572000000    -1.773000000    -7.400000000
C     5.644000000    -2.534000000    -5.641000000
H     6.511000000    -3.073000000    -5.268000000
C     4.466000000    -2.525000000    -4.854000000
O     4.394000000    -3.403000000    -3.822000000
C     4.021000000    -3.089000000    -2.552000000
C     3.242000000    -4.065000000    -1.884000000
H     2.925000000    -4.936000000    -2.451000000
C     2.833000000    -3.839000000    -0.546000000
O     2.080000000    -4.829000000     0.249000000
C     2.452000000    -5.107000000     1.529000000
C     3.824000000    -5.259000000     1.795000000
H     4.555000000    -4.913000000     1.069000000
C     4.140000000    -5.562000000     3.113000000
H     5.175000000    -5.562000000     3.446000000
C     3.246000000    -5.787000000     4.126000000
H     3.594000000    -5.745000000     5.155000000
C     1.901000000    -5.585000000     3.843000000
C     1.519000000    -5.271000000     2.543000000
H     0.481000000    -5.003000000     2.362000000
C    -1.000000000    -2.802000000    -0.244000000
H    -1.026000000    -3.792000000     0.204000000
C    -0.273000000    -1.774000000     0.412000000
H     0.324000000    -1.953000000     1.302000000
C    -0.191000000    -0.503000000    -0.157000000
C     0.562000000     0.580000000     0.600000000
H     1.001000000     0.176000000     1.514000000
H     1.365000000     1.007000000    -0.004000000
H    -0.112000000     1.410000000     0.824000000
C    -0.823000000    -0.234000000    -1.335000000
H    -0.709000000     0.709000000    -1.864000000
C    -1.611000000    -1.231000000    -1.993000000
H    -2.048000000    -1.094000000    -2.979000000
C    -1.733000000    -2.510000000    -1.444000000
C    -2.372000000    -3.643000000    -2.194000000
O    -3.056000000    -3.407000000    -3.148000000
O    -2.127000000    -4.784000000    -1.882000000
O    -6.408000000    -5.514000000    -6.248000000
H    -6.416000000    -6.000000000    -7.072000000
H    -5.886000000    -4.733000000    -6.435000000
O    -2.882000000    -6.330000000    -7.766000000
H    -1.933000000    -6.435000000    -7.697000000
H    -3.068000000    -5.522000000    -7.287000000
O    -1.197000000    -8.592000000    -1.257000000
H    -1.926000000    -8.343000000    -0.690000000
H    -0.421000000    -8.499000000    -0.704000000
O    -5.038000000    -9.354000000    -1.094000000
H    -4.978000000    -8.937000000    -1.953000000
H    -5.950000000    -9.234000000    -0.832000000
O    -3.054000000    -6.143000000     0.690000000
H    -2.950000000    -5.686000000    -0.145000000
H    -3.992000000    -6.319000000     0.751000000
O    -6.629000000    -4.812000000     0.603000000
H    -6.258000000    -4.857000000    -0.278000000
H    -6.378000000    -3.947000000     0.925000000
O     0.381000000    -2.817000000    -3.976000000
H    -0.269000000    -2.239000000    -3.577000000
H     0.696000000    -3.359000000    -3.253000000
O    -7.212000000    -5.824000000    -3.456000000
H    -6.869000000    -5.708000000    -4.343000000
H    -7.828000000    -5.100000000    -3.341000000
O    -0.086000000    -3.684000000    -6.549000000
H    -0.092000000    -4.628000000    -6.391000000
H     0.292000000    -3.311000000    -5.753000000
O    -3.065000000    -3.924000000    -5.858000000
H    -2.897000000    -3.805000000    -4.923000000
H    -2.351000000    -3.454000000    -6.290000000
O     0.007000000    -6.813000000    -6.919000000
H     0.341000000    -7.565000000    -7.408000000
H     0.381000000    -6.911000000    -6.043000000
O    -5.185000000    -3.046000000    -7.363000000
H    -4.490000000    -3.108000000    -6.708000000
H    -4.847000000    -3.528000000    -8.118000000
O    -4.981000000    -7.596000000    -3.209000000
H    -4.265000000    -7.046000000    -3.527000000
H    -5.700000000    -6.985000000    -3.049000000
O     0.393000000    -5.604000000    -2.054000000
H     0.720000000    -5.719000000    -1.162000000
H    -0.556000000    -5.531000000    -1.954000000
O    -1.292000000    -7.782000000     1.855000000
H    -1.665000000    -6.972000000     1.506000000
H    -2.044000000    -8.361000000     1.972000000
O     1.563000000    -6.689000000    -4.189000000
H     1.088000000    -6.313000000    -3.448000000
H     1.489000000    -7.635000000    -4.067000000
O    -5.005000000    -5.176000000    -1.665000000
H    -4.194000000    -4.686000000    -1.804000000
H    -5.570000000    -4.915000000    -2.392000000
O    -2.324000000    -6.228000000    -4.180000000
H    -2.229000000    -5.728000000    -3.369000000
H    -2.671000000    -5.597000000    -4.811000000
O    -1.259000000    -8.650000000    -4.170000000
H    -1.288000000    -8.877000000    -3.241000000
H    -1.480000000    -7.719000000    -4.197000000
