218
-1446.17877
C    -5.158000000     1.386000000    -1.990000000
H    -4.881000000     2.143000000    -2.720000000
C    -4.777000000     1.416000000    -0.614000000
C    -5.305000000     0.403000000     0.235000000
H    -4.920000000     0.380000000     1.252000000
C    -3.738000000     2.395000000    -0.080000000
O    -3.592000000     3.602000000    -0.850000000
H    -2.745000000     1.924000000    -0.034000000
O    -4.043000000     2.853000000     1.283000000
C    -3.013000000     2.861000000     2.194000000
C    -2.825000000     1.828000000     3.066000000
H    -3.484000000     0.964000000     3.041000000
C    -1.740000000     1.752000000     3.975000000
O    -1.628000000     0.596000000     4.741000000
C    -0.779000000     2.790000000     3.968000000
C     0.548000000     2.691000000     4.754000000
H     0.832000000     3.735000000     4.904000000
C     1.634000000     1.901000000     4.048000000
C     2.609000000     2.576000000     3.323000000
H     2.574000000     3.662000000     3.291000000
H     0.365000000     2.223000000     5.724000000
C    -1.006000000     3.879000000     3.124000000
H    -0.189000000     4.591000000     3.043000000
C    -2.100000000     3.962000000     2.256000000
C    -2.150000000     5.113000000     1.256000000
H    -1.571000000     5.942000000     1.666000000
H    -3.139000000     5.565000000     1.161000000
C    -1.495000000     4.761000000    -0.074000000
C    -0.130000000     5.029000000    -0.288000000
H     0.490000000     5.484000000     0.480000000
C    -2.291000000     4.063000000    -1.047000000
C    -1.630000000     3.686000000    -2.212000000
H    -2.153000000     3.098000000    -2.962000000
C    -0.288000000     4.017000000    -2.367000000
O     0.396000000     3.520000000    -3.465000000
C     1.268000000     2.377000000    -3.311000000
C     0.907000000     1.204000000    -4.231000000
C     1.882000000     0.310000000    -4.689000000
H     2.946000000     0.382000000    -4.481000000
C    -0.452000000     0.960000000    -4.552000000
H    -1.287000000     1.593000000    -4.262000000
O     2.603000000     2.815000000    -3.433000000
H     1.010000000     2.028000000    -2.300000000
C     0.505000000     4.630000000    -1.376000000
C     1.976000000     4.971000000    -1.546000000
H     2.246000000     5.795000000    -0.883000000
H     2.193000000     5.233000000    -2.584000000
C     2.932000000     3.848000000    -1.253000000
C     3.521000000     3.752000000    -0.006000000
H     3.297000000     4.504000000     0.746000000
C     3.249000000     2.859000000    -2.250000000
C     4.089000000     1.784000000    -1.952000000
H     4.220000000     1.015000000    -2.710000000
C     4.624000000     1.658000000    -0.651000000
O     5.130000000     0.456000000    -0.210000000
C     4.251000000    -0.464000000     0.534000000
C     4.317000000    -1.905000000     0.077000000
C     4.847000000    -2.222000000    -1.098000000
H     5.349000000    -1.461000000    -1.690000000
C     3.854000000    -2.884000000     0.882000000
H     3.499000000    -2.699000000     1.892000000
O     4.481000000    -0.332000000     2.000000000
H     3.200000000    -0.188000000     0.369000000
C     4.394000000     2.682000000     0.342000000
C     4.781000000     2.519000000     1.884000000
H     4.992000000     3.501000000     2.313000000
H     5.755000000     2.026000000     1.925000000
C     3.689000000     1.866000000     2.709000000
C     3.687000000     0.474000000     2.774000000
C     2.658000000    -0.167000000     3.478000000
H     2.616000000    -1.224000000     3.729000000
C     1.618000000     0.538000000     4.103000000
O     0.636000000    -0.148000000     4.743000000
C    -0.675000000    -0.376000000     4.199000000
H    -0.600000000    -0.113000000     3.133000000
C    -1.108000000    -1.804000000     4.420000000
C    -2.383000000    -2.139000000     3.971000000
H    -3.025000000    -1.378000000     3.534000000
C    -0.238000000    -2.796000000     4.745000000
H     0.765000000    -2.485000000     5.027000000
C    -0.680000000    -4.144000000     4.833000000
O     0.256000000    -5.132000000     5.144000000
C    -2.011000000    -4.448000000     4.471000000
H    -2.332000000    -5.468000000     4.664000000
C    -2.839000000    -3.450000000     4.013000000
O    -4.167000000    -3.812000000     3.740000000
C    -5.108000000    -2.879000000     3.420000000
C    -5.414000000    -2.674000000     2.100000000
H    -4.972000000    -3.318000000     1.344000000
C    -5.793000000    -2.160000000     4.425000000
H    -5.575000000    -2.283000000     5.482000000
C    -6.705000000    -1.188000000     4.114000000
H    -7.073000000    -0.577000000     4.933000000
C    -6.935000000    -0.947000000     2.753000000
H    -7.482000000    -0.065000000     2.431000000
C    -6.417000000    -1.766000000     1.754000000
O    -6.718000000    -1.592000000     0.428000000
C    -6.055000000    -0.671000000    -0.303000000
C    -6.349000000    -0.696000000    -1.691000000
H    -6.826000000    -1.559000000    -2.147000000
C    -5.988000000     0.368000000    -2.452000000
O    -6.366000000     0.316000000    -3.786000000
C    -5.386000000     0.592000000    -4.760000000
C    -4.273000000    -0.249000000    -4.764000000
H    -4.222000000    -1.128000000    -4.127000000
C    -5.441000000     1.696000000    -5.558000000
H    -6.304000000     2.356000000    -5.537000000
C    -4.420000000     1.933000000    -6.474000000
H    -4.494000000     2.846000000    -7.060000000
C    -3.247000000     1.163000000    -6.529000000
H    -2.381000000     1.374000000    -7.152000000
C    -3.191000000     0.023000000    -5.671000000
O    -2.058000000    -0.711000000    -5.554000000
C    -0.781000000    -0.229000000    -5.255000000
C     0.182000000    -1.134000000    -5.670000000
H    -0.129000000    -2.090000000    -6.085000000
C     1.514000000    -0.786000000    -5.478000000
O     2.451000000    -1.653000000    -6.017000000
C     3.667000000    -2.023000000    -5.586000000
C     3.899000000    -2.713000000    -4.430000000
H     3.046000000    -2.924000000    -3.791000000
C     4.796000000    -1.699000000    -6.428000000
H     4.629000000    -1.011000000    -7.253000000
C     6.124000000    -2.191000000    -6.081000000
H     6.968000000    -1.978000000    -6.733000000
C     6.211000000    -2.903000000    -4.869000000
H     7.135000000    -3.390000000    -4.569000000
C     5.145000000    -3.007000000    -3.979000000
O     5.352000000    -3.774000000    -2.873000000
C     4.899000000    -3.500000000    -1.559000000
C     4.409000000    -4.533000000    -0.720000000
H     4.310000000    -5.544000000    -1.108000000
C     3.831000000    -4.244000000     0.496000000
O     3.084000000    -5.144000000     1.326000000
C     2.929000000    -5.132000000     2.681000000
C     4.062000000    -5.348000000     3.481000000
H     5.025000000    -5.233000000     2.989000000
C     3.826000000    -5.441000000     4.891000000
H     4.646000000    -5.582000000     5.592000000
C     2.512000000    -5.497000000     5.437000000
H     2.414000000    -5.503000000     6.519000000
C     1.471000000    -5.230000000     4.606000000
C     1.651000000    -5.139000000     3.232000000
H     0.775000000    -4.990000000     2.606000000
C     0.255000000    -2.233000000    -0.017000000
H     0.832000000    -3.054000000     0.400000000
C     0.578000000    -0.931000000     0.339000000
H     1.305000000    -0.725000000     1.120000000
C    -0.076000000     0.126000000    -0.291000000
C     0.214000000     1.525000000     0.226000000
H    -0.128000000     2.237000000    -0.528000000
H    -0.317000000     1.558000000     1.180000000
H     1.285000000     1.722000000     0.310000000
C    -1.103000000    -0.085000000    -1.217000000
H    -1.651000000     0.697000000    -1.737000000
C    -1.471000000    -1.393000000    -1.472000000
H    -2.157000000    -1.660000000    -2.272000000
C    -0.782000000    -2.448000000    -0.861000000
C    -1.075000000    -3.883000000    -1.293000000
O    -1.687000000    -4.080000000    -2.294000000
O    -0.482000000    -4.716000000    -0.780000000
O    -1.761000000    -6.245000000    -6.662000000
H    -1.658000000    -7.002000000    -6.085000000
H    -1.452000000    -5.503000000    -6.142000000
O     2.318000000    -8.994000000    -4.717000000
H     1.768000000    -8.422000000    -4.182000000
H     1.708000000    -9.417000000    -5.320000000
O     0.561000000    -7.690000000    -3.010000000
H    -0.263000000    -7.826000000    -2.544000000
H     0.938000000    -6.908000000    -2.607000000
O     3.658000000    -8.205000000    -2.084000000
H     3.201000000    -8.253000000    -1.244000000
H     3.440000000    -9.027000000    -2.522000000
O    -1.407000000    -6.627000000     0.848000000
H    -0.861000000    -5.994000000     0.382000000
H    -2.287000000    -6.250000000     0.821000000
O     2.858000000    -8.017000000     0.536000000
H     2.717000000    -7.089000000     0.724000000
H     2.857000000    -8.438000000     1.395000000
O     1.690000000    -5.227000000    -6.314000000
H     0.899000000    -5.368000000    -5.794000000
H     2.350000000    -5.784000000    -5.902000000
O    -0.534000000    -4.660000000    -4.681000000
H    -1.175000000    -4.598000000    -3.972000000
H     0.116000000    -3.988000000    -4.476000000
O    -1.525000000    -8.112000000    -4.728000000
H    -0.640000000    -7.823000000    -4.507000000
H    -2.079000000    -7.736000000    -4.044000000
O    -1.279000000    -9.171000000    -0.676000000
H    -0.677000000    -8.594000000    -0.205000000
H    -1.860000000    -8.576000000    -1.149000000
O    -4.884000000    -6.374000000    -4.454000000
H    -4.829000000    -7.136000000    -3.878000000
H    -5.770000000    -6.409000000    -4.815000000
O    -4.203000000    -6.016000000     0.210000000
H    -4.595000000    -5.322000000    -0.320000000
H    -4.934000000    -6.595000000     0.425000000
O     1.819000000    -5.304000000    -1.803000000
H     0.908000000    -5.185000000    -1.535000000
H     2.331000000    -5.016000000    -1.048000000
O    -0.746000000    -7.704000000     3.530000000
H    -0.926000000    -7.377000000     2.649000000
H     0.172000000    -7.479000000     3.685000000
O     3.197000000    -5.869000000    -4.016000000
H     2.708000000    -5.546000000    -3.259000000
H     3.656000000    -6.644000000    -3.692000000
O    -4.226000000    -9.269000000    -0.067000000
H    -4.752000000    -8.739000000     0.532000000
H    -3.359000000    -9.298000000     0.337000000
O    -5.464000000    -3.982000000    -2.756000000
H    -4.758000000    -3.367000000    -2.557000000
H    -5.024000000    -4.731000000    -3.157000000
O    -2.081000000    -6.940000000    -2.192000000
H    -1.650000000    -6.090000000    -2.106000000
H    -2.836000000    -6.886000000    -1.606000000
O    -5.407000000    -8.332000000    -2.245000000
H    -6.348000000    -8.414000000    -2.089000000
H    -5.002000000    -8.693000000    -1.456000000
