218
-1454.57315
C     0.153000000    -4.730000000     1.283000000
H    -0.211000000    -4.810000000     0.262000000
C    -0.653000000    -4.126000000     2.245000000
C    -0.193000000    -3.970000000     3.557000000
H    -0.805000000    -3.370000000     4.225000000
C    -1.862000000    -3.396000000     1.741000000
O    -2.562000000    -4.106000000     0.617000000
H    -1.422000000    -2.489000000     1.299000000
O    -2.751000000    -2.990000000     2.863000000
C    -3.132000000    -1.672000000     2.797000000
C    -2.543000000    -0.692000000     3.572000000
H    -1.677000000    -0.964000000     4.170000000
C    -2.944000000     0.628000000     3.567000000
O    -2.178000000     1.572000000     4.186000000
C    -4.023000000     1.073000000     2.806000000
C    -4.378000000     2.564000000     2.598000000
H    -5.403000000     2.689000000     2.242000000
C    -3.488000000     3.243000000     1.569000000
C    -3.920000000     3.485000000     0.270000000
H    -4.883000000     3.100000000    -0.054000000
H    -4.320000000     3.026000000     3.586000000
C    -4.617000000     0.034000000     1.987000000
H    -5.368000000     0.342000000     1.263000000
C    -4.177000000    -1.259000000     1.966000000
C    -4.861000000    -2.211000000     0.950000000
H    -5.847000000    -1.871000000     0.627000000
H    -5.052000000    -3.215000000     1.332000000
C    -4.056000000    -2.314000000    -0.322000000
C    -4.328000000    -1.462000000    -1.401000000
H    -5.115000000    -0.712000000    -1.379000000
C    -3.034000000    -3.277000000    -0.415000000
C    -2.390000000    -3.407000000    -1.660000000
H    -1.500000000    -4.031000000    -1.670000000
C    -2.730000000    -2.615000000    -2.791000000
O    -1.954000000    -2.673000000    -3.864000000
C    -0.984000000    -1.645000000    -4.039000000
C     0.371000000    -2.156000000    -4.525000000
C     1.335000000    -1.339000000    -5.143000000
H     1.047000000    -0.339000000    -5.457000000
C     0.698000000    -3.484000000    -4.136000000
H    -0.014000000    -4.145000000    -3.649000000
O    -1.521000000    -0.560000000    -4.920000000
H    -0.925000000    -1.296000000    -2.997000000
C    -3.681000000    -1.640000000    -2.615000000
C    -4.083000000    -0.733000000    -3.811000000
H    -5.143000000    -0.472000000    -3.773000000
H    -3.879000000    -1.215000000    -4.770000000
C    -3.237000000     0.578000000    -3.713000000
C    -3.766000000     1.757000000    -3.175000000
H    -4.785000000     1.856000000    -2.808000000
C    -1.961000000     0.527000000    -4.271000000
C    -1.176000000     1.616000000    -4.179000000
H    -0.191000000     1.597000000    -4.639000000
C    -1.610000000     2.764000000    -3.492000000
O    -0.642000000     3.688000000    -3.236000000
C    -0.038000000     3.702000000    -1.914000000
C     1.502000000     3.772000000    -1.831000000
C     2.211000000     3.246000000    -2.926000000
H     1.669000000     2.780000000    -3.744000000
C     2.084000000     4.462000000    -0.825000000
H     1.497000000     4.943000000    -0.047000000
O    -0.772000000     4.674000000    -1.139000000
H    -0.305000000     2.710000000    -1.521000000
C    -2.926000000     2.863000000    -2.995000000
C    -3.358000000     4.060000000    -2.209000000
H    -4.390000000     4.337000000    -2.435000000
H    -2.932000000     4.951000000    -2.677000000
C    -3.013000000     3.936000000    -0.740000000
C    -1.726000000     4.188000000    -0.347000000
C    -1.344000000     4.076000000     0.959000000
H    -0.370000000     4.489000000     1.207000000
C    -2.160000000     3.558000000     1.941000000
O    -1.556000000     3.446000000     3.162000000
C    -1.081000000     2.109000000     3.484000000
H    -0.878000000     1.589000000     2.537000000
C     0.177000000     2.015000000     4.325000000
C     0.329000000     1.108000000     5.375000000
H    -0.580000000     0.601000000     5.686000000
C     1.302000000     2.860000000     4.043000000
H     1.320000000     3.401000000     3.101000000
C     2.478000000     2.776000000     4.757000000
O     3.631000000     3.454000000     4.371000000
C     2.642000000     1.790000000     5.699000000
H     3.585000000     1.649000000     6.221000000
C     1.549000000     0.984000000     6.077000000
O     1.562000000     0.163000000     7.247000000
C     1.171000000    -1.206000000     7.170000000
C     1.699000000    -2.056000000     6.164000000
H     2.353000000    -1.744000000     5.354000000
C     0.219000000    -1.752000000     8.055000000
H    -0.269000000    -1.122000000     8.795000000
C    -0.196000000    -3.106000000     7.879000000
H    -0.922000000    -3.600000000     8.520000000
C     0.272000000    -3.882000000     6.865000000
H    -0.044000000    -4.912000000     6.717000000
C     1.282000000    -3.395000000     6.039000000
O     1.719000000    -4.198000000     5.102000000
C     1.143000000    -4.367000000     3.831000000
C     1.887000000    -4.985000000     2.917000000
H     2.847000000    -5.364000000     3.258000000
C     1.411000000    -5.236000000     1.603000000
O     2.106000000    -6.095000000     0.712000000
C     1.760000000    -6.470000000    -0.579000000
C     2.148000000    -5.709000000    -1.675000000
H     2.807000000    -4.855000000    -1.544000000
C     1.223000000    -7.727000000    -0.848000000
H     1.083000000    -8.435000000    -0.035000000
C     0.894000000    -8.103000000    -2.227000000
H     0.486000000    -9.082000000    -2.467000000
C     1.213000000    -7.203000000    -3.229000000
H     1.063000000    -7.488000000    -4.267000000
C     1.830000000    -6.050000000    -2.999000000
O     2.344000000    -5.244000000    -4.059000000
C     1.985000000    -3.953000000    -4.338000000
C     2.928000000    -3.096000000    -4.921000000
H     3.903000000    -3.544000000    -5.098000000
C     2.608000000    -1.892000000    -5.405000000
O     3.583000000    -1.154000000    -6.106000000
C     3.497000000     0.268000000    -6.263000000
C     3.772000000     1.008000000    -5.091000000
H     3.950000000     0.606000000    -4.097000000
C     3.108000000     0.889000000    -7.429000000
H     2.880000000     0.283000000    -8.302000000
C     3.130000000     2.270000000    -7.467000000
H     2.783000000     2.778000000    -8.363000000
C     3.406000000     2.984000000    -6.287000000
H     3.397000000     4.070000000    -6.264000000
C     3.766000000     2.357000000    -5.124000000
O     4.316000000     3.082000000    -4.044000000
C     3.586000000     3.473000000    -2.981000000
C     4.253000000     4.130000000    -1.956000000
H     5.331000000     4.262000000    -1.988000000
C     3.489000000     4.624000000    -0.927000000
O     4.086000000     5.488000000     0.000000000
C     3.842000000     5.577000000     1.323000000
C     3.576000000     6.832000000     1.872000000
H     3.550000000     7.736000000     1.269000000
C     3.193000000     6.906000000     3.262000000
H     2.883000000     7.914000000     3.525000000
C     3.215000000     5.762000000     4.084000000
H     3.027000000     5.817000000     5.154000000
C     3.535000000     4.552000000     3.482000000
C     3.903000000     4.436000000     2.148000000
H     4.231000000     3.474000000     1.761000000
C     1.854000000    -1.568000000     2.007000000
H     1.917000000    -1.918000000     3.034000000
C     0.706000000    -0.965000000     1.559000000
H    -0.160000000    -0.867000000     2.209000000
C     0.541000000    -0.502000000     0.241000000
C    -0.777000000     0.115000000    -0.204000000
H    -0.652000000     1.183000000    -0.016000000
H    -1.012000000    -0.028000000    -1.261000000
H    -1.689000000    -0.197000000     0.309000000
C     1.545000000    -0.753000000    -0.688000000
H     1.290000000    -0.455000000    -1.702000000
C     2.746000000    -1.321000000    -0.249000000
H     3.546000000    -1.420000000    -0.978000000
C     3.006000000    -1.654000000     1.122000000
C     4.303000000    -2.321000000     1.537000000
O     5.224000000    -2.569000000     0.771000000
O     4.559000000    -2.532000000     2.692000000
O     8.123000000    -6.231000000     0.601000000
H     7.533000000    -6.757000000     1.141000000
H     8.986000000    -6.621000000     0.739000000
O     7.454000000    -3.971000000     5.649000000
H     7.668000000    -4.000000000     4.716000000
H     6.516000000    -3.778000000     5.673000000
O     6.593000000     1.130000000    -0.810000000
H     7.219000000     1.441000000    -0.156000000
H     5.763000000     1.534000000    -0.558000000
O     9.406000000    -2.013000000     0.696000000
H     8.992000000    -1.619000000     1.464000000
H     8.760000000    -1.912000000    -0.003000000
O     6.559000000    -7.866000000     2.261000000
H     5.895000000    -7.704000000     1.591000000
H     6.061000000    -8.143000000     3.030000000
O     6.717000000    -4.607000000     3.227000000
H     6.057000000    -4.374000000     3.879000000
H     6.676000000    -3.902000000     2.581000000
O     7.106000000    -1.971000000    -1.023000000
H     6.428000000    -2.199000000    -0.387000000
H     6.848000000    -1.110000000    -1.351000000
O     4.773000000    -7.819000000     0.273000000
H     4.796000000    -6.869000000     0.152000000
H     4.794000000    -8.174000000    -0.615000000
O     3.823000000     1.671000000     0.375000000
H     3.239000000     0.943000000     0.164000000
H     4.223000000     1.423000000     1.209000000
O     5.292000000     1.153000000     2.862000000
H     5.020000000     0.647000000     3.627000000
H     5.754000000     1.908000000     3.226000000
O     5.447000000    -5.609000000    -2.730000000
H     5.665000000    -5.450000000    -1.812000000
H     5.631000000    -4.778000000    -3.168000000
O     8.848000000    -3.044000000    -2.912000000
H     8.358000000    -3.350000000    -3.676000000
H     8.200000000    -2.581000000    -2.382000000
O     7.003000000    -1.071000000     2.439000000
H     6.227000000    -1.620000000     2.326000000
H     6.746000000    -0.219000000     2.088000000
O     9.324000000    -4.789000000     2.880000000
H     8.390000000    -4.830000000     2.677000000
H     9.729000000    -5.402000000     2.267000000
O     4.594000000    -4.057000000     5.222000000
H     3.879000000    -3.845000000     5.822000000
H     4.382000000    -3.583000000     4.418000000
O     8.639000000     1.227000000     0.993000000
H     8.992000000     1.692000000     1.752000000
H     9.396000000     0.780000000     0.613000000
O     5.436000000    -0.726000000     4.818000000
H     6.284000000    -0.807000000     4.381000000
H     4.933000000    -1.478000000     4.506000000
O     8.895000000    -1.490000000     4.380000000
H     8.637000000    -0.723000000     4.891000000
H     8.202000000    -1.588000000     3.727000000
O     5.574000000    -5.053000000    -0.207000000
H     5.217000000    -4.176000000    -0.064000000
H     6.297000000    -5.122000000     0.416000000
