218
-1480.37729
C     0.367000000    -5.285000000    -0.213000000
H    -0.298000000    -5.125000000    -1.058000000
C    -0.062000000    -4.767000000     0.983000000
C     0.746000000    -5.009000000     2.103000000
H     0.398000000    -4.772000000     3.105000000
C    -1.342000000    -3.923000000     1.086000000
O    -2.423000000    -4.501000000     0.326000000
H    -1.144000000    -2.888000000     0.771000000
O    -1.754000000    -3.953000000     2.473000000
C    -2.230000000    -2.810000000     3.100000000
C    -1.258000000    -1.999000000     3.753000000
H    -0.259000000    -2.417000000     3.846000000
C    -1.581000000    -0.778000000     4.119000000
O    -0.577000000    -0.125000000     4.745000000
C    -2.885000000    -0.268000000     3.944000000
C    -3.317000000     1.120000000     4.293000000
H    -4.407000000     1.175000000     4.317000000
C    -2.804000000     2.222000000     3.345000000
C    -3.616000000     2.607000000     2.295000000
H    -4.629000000     2.229000000     2.181000000
H    -2.971000000     1.489000000     5.261000000
C    -3.868000000    -1.143000000     3.317000000
H    -4.840000000    -0.717000000     3.079000000
C    -3.507000000    -2.322000000     2.767000000
C    -4.474000000    -2.973000000     1.811000000
H    -5.483000000    -2.594000000     1.982000000
H    -4.474000000    -4.059000000     1.926000000
C    -4.103000000    -2.759000000     0.310000000
C    -4.783000000    -1.750000000    -0.445000000
H    -5.510000000    -1.151000000     0.098000000
C    -3.157000000    -3.576000000    -0.328000000
C    -2.779000000    -3.290000000    -1.665000000
H    -2.035000000    -3.909000000    -2.160000000
C    -3.337000000    -2.248000000    -2.320000000
O    -2.727000000    -1.906000000    -3.482000000
C    -1.809000000    -0.729000000    -3.624000000
C    -0.541000000    -0.997000000    -4.371000000
C     0.214000000     0.022000000    -4.957000000
H    -0.078000000     1.053000000    -4.772000000
C    -0.192000000    -2.284000000    -4.555000000
H    -0.787000000    -3.126000000    -4.209000000
O    -2.502000000     0.446000000    -4.110000000
H    -1.600000000    -0.365000000    -2.607000000
C    -4.341000000    -1.477000000    -1.747000000
C    -5.032000000    -0.313000000    -2.484000000
H    -6.045000000    -0.171000000    -2.103000000
H    -5.210000000    -0.606000000    -3.521000000
C    -4.224000000     1.011000000    -2.356000000
C    -4.605000000     1.924000000    -1.357000000
H    -5.434000000     1.673000000    -0.700000000
C    -3.089000000     1.272000000    -3.129000000
C    -2.335000000     2.409000000    -2.921000000
H    -1.442000000     2.600000000    -3.511000000
C    -2.598000000     3.258000000    -1.878000000
O    -1.686000000     4.271000000    -1.593000000
C    -0.714000000     4.135000000    -0.565000000
C     0.612000000     4.631000000    -1.044000000
C     0.992000000     4.472000000    -2.359000000
H     0.287000000     4.210000000    -3.143000000
C     1.607000000     5.033000000    -0.125000000
H     1.394000000     5.210000000     0.926000000
O    -1.197000000     4.880000000     0.525000000
H    -0.651000000     3.085000000    -0.241000000
C    -3.755000000     3.019000000    -1.046000000
C    -4.013000000     3.950000000     0.129000000
H    -5.028000000     3.840000000     0.515000000
H    -3.919000000     5.007000000    -0.127000000
C    -3.111000000     3.502000000     1.373000000
C    -1.857000000     4.106000000     1.506000000
C    -1.070000000     3.756000000     2.608000000
H    -0.134000000     4.288000000     2.756000000
C    -1.537000000     2.763000000     3.442000000
O    -0.608000000     2.217000000     4.346000000
C     0.030000000     0.948000000     3.910000000
H    -0.190000000     0.695000000     2.863000000
C     1.577000000     0.967000000     4.119000000
C     2.220000000    -0.312000000     4.240000000
H     1.554000000    -1.161000000     4.368000000
C     2.378000000     2.080000000     4.089000000
H     1.923000000     3.066000000     4.058000000
C     3.762000000     2.041000000     4.194000000
O     4.556000000     3.128000000     4.084000000
C     4.370000000     0.769000000     4.355000000
H     5.445000000     0.676000000     4.486000000
C     3.591000000    -0.389000000     4.264000000
O     4.220000000    -1.594000000     4.300000000
C     3.561000000    -2.762000000     4.573000000
C     3.475000000    -3.804000000     3.666000000
H     3.837000000    -3.708000000     2.645000000
C     3.083000000    -2.954000000     5.883000000
H     3.281000000    -2.100000000     6.526000000
C     2.412000000    -4.171000000     6.244000000
H     1.980000000    -4.179000000     7.241000000
C     2.424000000    -5.170000000     5.344000000
H     1.878000000    -6.060000000     5.645000000
C     2.921000000    -5.018000000     4.070000000
O     2.832000000    -5.947000000     3.066000000
C     1.964000000    -5.754000000     1.992000000
C     2.315000000    -6.240000000     0.720000000
H     3.131000000    -6.957000000     0.680000000
C     1.483000000    -6.062000000    -0.370000000
O     1.799000000    -6.625000000    -1.590000000
C     1.258000000    -6.232000000    -2.747000000
C     1.885000000    -5.334000000    -3.643000000
H     2.807000000    -4.812000000    -3.401000000
C     0.110000000    -6.948000000    -3.061000000
H    -0.300000000    -7.637000000    -2.327000000
C    -0.535000000    -6.643000000    -4.271000000
H    -1.409000000    -7.252000000    -4.488000000
C    -0.028000000    -5.666000000    -5.074000000
H    -0.584000000    -5.330000000    -5.945000000
C     1.131000000    -4.971000000    -4.761000000
O     1.469000000    -3.854000000    -5.515000000
C     0.984000000    -2.601000000    -5.293000000
C     1.762000000    -1.554000000    -5.826000000
H     2.695000000    -1.832000000    -6.309000000
C     1.389000000    -0.237000000    -5.634000000
O     2.252000000     0.752000000    -6.067000000
C     1.977000000     2.102000000    -6.055000000
C     2.203000000     2.888000000    -4.942000000
H     2.827000000     2.583000000    -4.106000000
C     1.318000000     2.655000000    -7.168000000
H     1.114000000     2.061000000    -8.056000000
C     1.093000000     4.001000000    -7.229000000
H     0.704000000     4.552000000    -8.081000000
C     1.315000000     4.828000000    -6.154000000
H     1.273000000     5.914000000    -6.196000000
C     1.948000000     4.241000000    -5.038000000
O     2.462000000     5.127000000    -4.145000000
C     2.223000000     4.916000000    -2.815000000
C     3.158000000     5.515000000    -1.956000000
H     3.971000000     6.057000000    -2.432000000
C     2.887000000     5.453000000    -0.585000000
O     3.715000000     6.121000000     0.234000000
C     3.871000000     5.789000000     1.588000000
C     3.757000000     6.854000000     2.449000000
H     3.618000000     7.798000000     1.929000000
C     3.946000000     6.709000000     3.811000000
H     3.894000000     7.536000000     4.514000000
C     4.218000000     5.409000000     4.315000000
H     4.315000000     5.221000000     5.381000000
C     4.314000000     4.353000000     3.417000000
C     4.135000000     4.526000000     2.033000000
H     4.200000000     3.668000000     1.369000000
C     2.674000000    -2.592000000    -0.881000000
H     2.949000000    -3.570000000    -0.495000000
C     1.631000000    -1.914000000    -0.181000000
H     1.187000000    -2.450000000     0.654000000
C     1.085000000    -0.797000000    -0.760000000
C    -0.226000000    -0.253000000    -0.213000000
H    -0.291000000    -0.261000000     0.877000000
H    -0.313000000     0.754000000    -0.626000000
H    -1.124000000    -0.746000000    -0.591000000
C     1.664000000    -0.222000000    -1.907000000
H     1.220000000     0.643000000    -2.393000000
C     2.681000000    -0.867000000    -2.553000000
H     3.079000000    -0.514000000    -3.501000000
C     3.084000000    -2.112000000    -2.128000000
C     4.232000000    -2.823000000    -2.756000000
O     4.647000000    -2.494000000    -3.860000000
O     4.735000000    -3.843000000    -2.262000000
O     6.305000000    -0.721000000    -7.638000000
H     5.851000000     0.118000000    -7.716000000
H     5.612000000    -1.353000000    -7.450000000
O     4.049000000     1.122000000     0.585000000
H     4.471000000     0.270000000     0.688000000
H     3.183000000     0.919000000     0.230000000
O     7.975000000     0.691000000    -5.325000000
H     7.197000000     0.747000000    -4.770000000
H     7.630000000     0.616000000    -6.214000000
O     4.823000000    -6.266000000    -5.660000000
H     3.880000000    -6.420000000    -5.609000000
H     5.048000000    -6.454000000    -6.571000000
O     5.513000000    -4.176000000     0.145000000
H     4.968000000    -4.911000000     0.424000000
H     5.270000000    -4.031000000    -0.769000000
O     7.498000000    -6.398000000    -4.621000000
H     6.626000000    -6.603000000    -4.961000000
H     7.817000000    -7.228000000    -4.267000000
O     5.815000000    -0.053000000    -3.957000000
H     6.402000000    -0.111000000    -3.203000000
H     5.439000000    -0.930000000    -4.036000000
O     6.973000000    -0.589000000    -1.531000000
H     6.423000000    -0.733000000    -0.761000000
H     7.654000000    -1.258000000    -1.469000000
O     3.737000000    -2.994000000    -8.590000000
H     4.327000000    -3.089000000    -7.842000000
H     3.059000000    -3.654000000    -8.446000000
O     8.627000000    -2.594000000    -1.659000000
H     9.514000000    -2.541000000    -2.014000000
H     8.104000000    -2.956000000    -2.374000000
O     5.825000000    -1.480000000     1.021000000
H     5.634000000    -2.406000000     0.872000000
H     6.625000000    -1.482000000     1.546000000
O     4.642000000    -6.576000000    -2.479000000
H     4.877000000    -5.656000000    -2.359000000
H     3.689000000    -6.593000000    -2.388000000
O     5.324000000    -3.148000000    -6.290000000
H     4.818000000    -2.780000000    -5.565000000
H     5.756000000    -3.915000000    -5.915000000
O     5.597000000     2.694000000    -4.093000000
H     5.793000000     2.824000000    -3.165000000
H     5.334000000     1.776000000    -4.155000000
O     9.196000000    -1.841000000    -5.159000000
H     8.925000000    -0.998000000    -4.797000000
H     8.652000000    -2.484000000    -4.705000000
O     5.515000000    -9.028000000    -1.598000000
H     6.147000000    -8.956000000    -0.883000000
H     5.305000000    -8.122000000    -1.824000000
O     8.305000000    -5.499000000    -0.726000000
H     8.094000000    -4.565000000    -0.722000000
H     7.817000000    -5.857000000     0.015000000
O     7.390000000    -3.617000000    -3.884000000
H     7.358000000    -4.570000000    -3.970000000
H     6.474000000    -3.353000000    -3.806000000
O     7.564000000    -4.179000000    -7.494000000
H     6.899000000    -3.496000000    -7.417000000
H     7.068000000    -4.977000000    -7.679000000
