218
-1457.34860
C     2.308000000    -3.741000000    -1.200000000
H     1.607000000    -3.326000000    -1.920000000
C     1.777000000    -4.242000000    -0.008000000
C     2.565000000    -4.698000000     1.022000000
H     2.130000000    -5.109000000     1.930000000
C     0.313000000    -4.149000000     0.165000000
O    -0.409000000    -4.801000000    -0.861000000
H     0.030000000    -3.087000000     0.216000000
O    -0.170000000    -4.651000000     1.355000000
C    -0.985000000    -3.855000000     2.076000000
C    -0.439000000    -3.034000000     3.032000000
H     0.610000000    -3.154000000     3.291000000
C    -1.203000000    -2.119000000     3.774000000
O    -0.631000000    -1.410000000     4.785000000
C    -2.561000000    -1.943000000     3.509000000
C    -3.283000000    -0.891000000     4.253000000
H    -4.306000000    -1.271000000     4.303000000
C    -3.293000000     0.416000000     3.621000000
C    -4.164000000     0.708000000     2.596000000
H    -4.953000000    -0.005000000     2.373000000
H    -2.914000000    -0.759000000     5.272000000
C    -3.104000000    -2.845000000     2.551000000
H    -4.184000000    -2.794000000     2.438000000
C    -2.345000000    -3.815000000     1.815000000
C    -2.957000000    -4.634000000     0.696000000
H    -4.048000000    -4.579000000     0.697000000
H    -2.520000000    -5.631000000     0.616000000
C    -2.648000000    -4.014000000    -0.733000000
C    -3.714000000    -3.296000000    -1.348000000
H    -4.666000000    -3.197000000    -0.832000000
C    -1.431000000    -4.034000000    -1.372000000
C    -1.248000000    -3.382000000    -2.595000000
H    -0.300000000    -3.547000000    -3.101000000
C    -2.183000000    -2.501000000    -3.044000000
O    -1.988000000    -1.842000000    -4.221000000
C    -1.658000000    -0.426000000    -4.159000000
C    -0.547000000    -0.031000000    -5.149000000
C    -0.532000000     1.347000000    -5.669000000
H    -1.365000000     2.007000000    -5.438000000
C     0.461000000    -0.932000000    -5.440000000
H     0.262000000    -1.972000000    -5.198000000
O    -2.856000000     0.406000000    -4.275000000
H    -1.294000000    -0.249000000    -3.137000000
C    -3.486000000    -2.440000000    -2.392000000
C    -4.570000000    -1.443000000    -2.897000000
H    -5.451000000    -1.871000000    -2.413000000
H    -4.702000000    -1.461000000    -3.981000000
C    -4.224000000    -0.003000000    -2.398000000
C    -4.710000000     0.419000000    -1.134000000
H    -5.309000000    -0.269000000    -0.542000000
C    -3.397000000     0.855000000    -3.111000000
C    -3.076000000     2.117000000    -2.630000000
H    -2.348000000     2.713000000    -3.175000000
C    -3.575000000     2.541000000    -1.397000000
O    -3.083000000     3.722000000    -0.912000000
C    -2.127000000     3.700000000     0.203000000
C    -1.029000000     4.667000000     0.015000000
C    -0.773000000     5.168000000    -1.205000000
H    -1.562000000     5.089000000    -1.950000000
C    -0.097000000     4.808000000     1.008000000
H    -0.275000000     4.426000000     2.010000000
O    -2.853000000     3.921000000     1.414000000
H    -1.719000000     2.679000000     0.246000000
C    -4.409000000     1.676000000    -0.604000000
C    -4.997000000     2.082000000     0.739000000
H    -5.964000000     1.633000000     0.976000000
H    -5.270000000     3.139000000     0.737000000
C    -4.044000000     1.868000000     1.881000000
C    -3.040000000     2.801000000     2.145000000
C    -2.111000000     2.473000000     3.115000000
H    -1.221000000     3.074000000     3.282000000
C    -2.171000000     1.211000000     3.801000000
O    -1.088000000     0.872000000     4.686000000
C    -0.133000000    -0.098000000     4.283000000
H    -0.139000000    -0.209000000     3.189000000
C     1.279000000     0.190000000     4.837000000
C     2.272000000    -0.822000000     4.756000000
H     2.009000000    -1.789000000     4.334000000
C     1.587000000     1.488000000     5.235000000
H     0.824000000     2.260000000     5.289000000
C     2.951000000     1.746000000     5.482000000
O     3.388000000     3.022000000     5.733000000
C     3.901000000     0.745000000     5.517000000
H     4.904000000     1.098000000     5.744000000
C     3.620000000    -0.550000000     5.185000000
O     4.567000000    -1.600000000     5.211000000
C     4.292000000    -2.862000000     4.794000000
C     4.763000000    -3.279000000     3.580000000
H     5.554000000    -2.764000000     3.040000000
C     3.436000000    -3.608000000     5.552000000
H     3.104000000    -3.373000000     6.561000000
C     3.100000000    -4.868000000     5.136000000
H     2.425000000    -5.504000000     5.703000000
C     3.514000000    -5.298000000     3.892000000
H     3.163000000    -6.298000000     3.648000000
C     4.382000000    -4.553000000     3.143000000
O     4.827000000    -4.915000000     1.924000000
C     3.966000000    -4.618000000     0.856000000
C     4.472000000    -4.200000000    -0.406000000
H     5.548000000    -4.221000000    -0.559000000
C     3.692000000    -3.768000000    -1.454000000
O     4.206000000    -3.396000000    -2.727000000
C     3.565000000    -3.535000000    -3.919000000
C     3.577000000    -2.463000000    -4.780000000
H     4.104000000    -1.553000000    -4.506000000
C     2.731000000    -4.636000000    -4.181000000
H     2.602000000    -5.368000000    -3.388000000
C     2.060000000    -4.763000000    -5.347000000
H     1.314000000    -5.535000000    -5.519000000
C     2.105000000    -3.734000000    -6.232000000
H     1.388000000    -3.807000000    -7.046000000
C     2.814000000    -2.588000000    -5.943000000
O     2.525000000    -1.430000000    -6.676000000
C     1.569000000    -0.527000000    -6.173000000
C     1.675000000     0.795000000    -6.579000000
H     2.531000000     1.052000000    -7.199000000
C     0.717000000     1.748000000    -6.208000000
O     0.856000000     3.043000000    -6.712000000
C     0.321000000     4.094000000    -5.972000000
C     0.874000000     4.568000000    -4.768000000
H     1.816000000     4.141000000    -4.435000000
C    -0.911000000     4.673000000    -6.268000000
H    -1.433000000     4.304000000    -7.146000000
C    -1.521000000     5.674000000    -5.477000000
H    -2.444000000     6.096000000    -5.867000000
C    -0.867000000     6.128000000    -4.356000000
H    -1.213000000     7.050000000    -3.895000000
C     0.299000000     5.560000000    -3.959000000
O     0.895000000     6.048000000    -2.818000000
C     0.519000000     5.691000000    -1.548000000
C     1.404000000     5.899000000    -0.502000000
H     2.354000000     6.387000000    -0.701000000
C     1.158000000     5.313000000     0.749000000
O     2.145000000     5.251000000     1.692000000
C     2.016000000     5.167000000     3.089000000
C     1.537000000     6.213000000     3.852000000
H     1.105000000     7.067000000     3.337000000
C     1.538000000     6.160000000     5.259000000
H     1.010000000     6.938000000     5.804000000
C     2.236000000     5.123000000     5.866000000
H     2.412000000     5.079000000     6.938000000
C     2.732000000     4.094000000     5.115000000
C     2.697000000     4.132000000     3.712000000
H     3.221000000     3.433000000     3.064000000
C     2.971000000    -0.042000000    -0.625000000
H     3.868000000    -0.581000000    -0.329000000
C     1.739000000    -0.339000000    -0.063000000
H     1.712000000    -0.966000000     0.825000000
C     0.581000000     0.304000000    -0.524000000
C    -0.765000000     0.095000000     0.114000000
H    -0.948000000    -0.971000000     0.267000000
H    -0.871000000     0.693000000     1.022000000
H    -1.527000000     0.492000000    -0.559000000
C     0.779000000     1.182000000    -1.707000000
H    -0.104000000     1.643000000    -2.143000000
C     2.067000000     1.487000000    -2.175000000
H     2.228000000     2.029000000    -3.103000000
C     3.175000000     0.876000000    -1.655000000
C     4.578000000     1.171000000    -2.171000000
O     4.845000000     1.965000000    -3.001000000
O     5.478000000     0.588000000    -1.617000000
O     7.746000000     0.434000000    -0.460000000
H     7.684000000    -0.441000000    -0.077000000
H     6.860000000     0.625000000    -0.766000000
O     6.911000000     3.695000000     2.249000000
H     6.439000000     2.939000000     2.600000000
H     6.244000000     4.199000000     1.783000000
O     6.025000000    -3.246000000    -6.733000000
H     6.898000000    -3.440000000    -7.075000000
H     6.181000000    -2.656000000    -5.997000000
O     4.129000000     4.695000000    -3.737000000
H     4.074000000     3.776000000    -3.475000000
H     4.337000000     4.666000000    -4.671000000
O     5.493000000    -0.485000000    -7.136000000
H     6.204000000    -1.096000000    -6.940000000
H     4.835000000    -1.018000000    -7.581000000
O     5.526000000     3.537000000    -0.680000000
H     5.415000000     2.960000000    -1.435000000
H     4.945000000     3.171000000    -0.012000000
O     7.783000000     2.988000000    -6.722000000
H     6.976000000     2.905000000    -6.213000000
H     7.902000000     3.932000000    -6.830000000
O     7.362000000    -2.442000000     0.735000000
H     7.184000000    -2.373000000    -0.203000000
H     8.066000000    -3.088000000     0.798000000
O     9.923000000     0.441000000     1.065000000
H     9.140000000     0.405000000     0.516000000
H    10.602000000     0.017000000     0.540000000
O     7.472000000    -1.285000000    -5.010000000
H     8.178000000    -1.750000000    -4.560000000
H     7.478000000    -0.409000000    -4.623000000
O     6.264000000    -0.299000000     2.288000000
H     6.867000000    -0.487000000     3.007000000
H     6.406000000    -1.010000000     1.663000000
O     5.403000000     2.018000000    -5.638000000
H     5.603000000     1.130000000    -5.933000000
H     5.103000000     1.909000000    -4.736000000
O     6.578000000    -2.079000000    -1.777000000
H     6.036000000    -2.721000000    -2.236000000
H     6.099000000    -1.255000000    -1.863000000
O     5.724000000     6.148000000    -1.886000000
H     5.870000000     5.299000000    -1.467000000
H     5.095000000     5.966000000    -2.584000000
O     8.846000000    -2.759000000    -2.913000000
H     8.228000000    -2.285000000    -2.357000000
H     8.443000000    -3.618000000    -3.041000000
O     9.231000000     3.344000000    -4.030000000
H     9.009000000     3.663000000    -4.905000000
H     8.439000000     2.899000000    -3.729000000
O     7.632000000     0.968000000    -3.454000000
H     6.829000000     1.235000000    -3.005000000
H     8.206000000     0.659000000    -2.753000000
O     4.492000000     1.801000000     1.363000000
H     3.749000000     1.453000000     0.869000000
H     5.040000000     1.037000000     1.541000000
O     7.925000000     4.607000000    -0.529000000
H     8.374000000     4.358000000     0.278000000
H     7.160000000     4.032000000    -0.565000000
