218
-1450.77975
C     1.600000000    -4.691000000    -1.395000000
H     0.770000000    -4.483000000    -2.066000000
C     1.334000000    -4.560000000     0.001000000
C     2.375000000    -4.573000000     0.907000000
H     2.223000000    -4.290000000     1.945000000
C    -0.059000000    -4.200000000     0.363000000
O    -1.108000000    -4.694000000    -0.493000000
H    -0.073000000    -3.102000000     0.293000000
O    -0.456000000    -4.565000000     1.692000000
C    -1.105000000    -3.649000000     2.528000000
C    -0.358000000    -2.870000000     3.430000000
H     0.723000000    -2.989000000     3.424000000
C    -0.962000000    -1.831000000     4.161000000
O    -0.079000000    -1.028000000     4.918000000
C    -2.293000000    -1.506000000     3.980000000
C    -2.926000000    -0.354000000     4.712000000
H    -3.966000000    -0.683000000     4.775000000
C    -2.724000000     1.004000000     3.950000000
C    -3.809000000     1.474000000     3.224000000
H    -4.680000000     0.841000000     3.075000000
H    -2.594000000    -0.315000000     5.752000000
C    -3.068000000    -2.244000000     3.049000000
H    -4.100000000    -1.968000000     2.849000000
C    -2.467000000    -3.296000000     2.314000000
C    -3.298000000    -4.032000000     1.293000000
H    -4.373000000    -4.010000000     1.484000000
H    -2.998000000    -5.081000000     1.242000000
C    -3.173000000    -3.532000000    -0.099000000
C    -4.159000000    -2.656000000    -0.537000000
H    -4.874000000    -2.208000000     0.147000000
C    -2.155000000    -3.931000000    -0.970000000
C    -2.133000000    -3.473000000    -2.312000000
H    -1.309000000    -3.658000000    -2.997000000
C    -3.114000000    -2.588000000    -2.706000000
O    -2.886000000    -1.934000000    -3.910000000
C    -2.306000000    -0.624000000    -3.736000000
C    -1.329000000    -0.386000000    -4.945000000
C    -1.148000000     0.861000000    -5.489000000
H    -1.670000000     1.727000000    -5.091000000
C    -0.451000000    -1.412000000    -5.255000000
H    -0.439000000    -2.311000000    -4.644000000
O    -3.316000000     0.403000000    -3.795000000
H    -1.674000000    -0.577000000    -2.836000000
C    -4.119000000    -2.102000000    -1.830000000
C    -5.112000000    -0.985000000    -2.159000000
H    -5.986000000    -1.139000000    -1.523000000
H    -5.348000000    -0.953000000    -3.224000000
C    -4.592000000     0.351000000    -1.782000000
C    -4.834000000     0.934000000    -0.536000000
H    -5.378000000     0.271000000     0.132000000
C    -3.764000000     1.008000000    -2.624000000
C    -3.309000000     2.334000000    -2.326000000
H    -2.737000000     2.909000000    -3.049000000
C    -3.478000000     2.849000000    -1.038000000
O    -2.777000000     3.967000000    -0.654000000
C    -1.745000000     3.815000000     0.337000000
C    -0.441000000     4.585000000    -0.076000000
C    -0.116000000     4.699000000    -1.433000000
H    -0.830000000     4.285000000    -2.140000000
C     0.496000000     5.078000000     0.904000000
H     0.202000000     5.187000000     1.945000000
O    -2.140000000     4.318000000     1.619000000
H    -1.419000000     2.770000000     0.448000000
C    -4.229000000     2.109000000    -0.119000000
C    -4.555000000     2.790000000     1.263000000
H    -5.571000000     2.511000000     1.552000000
H    -4.634000000     3.879000000     1.243000000
C    -3.598000000     2.551000000     2.405000000
C    -2.429000000     3.295000000     2.552000000
C    -1.366000000     2.911000000     3.353000000
H    -0.438000000     3.465000000     3.472000000
C    -1.531000000     1.714000000     4.068000000
O    -0.560000000     1.330000000     4.984000000
C     0.263000000     0.299000000     4.455000000
H     0.090000000     0.318000000     3.369000000
C     1.818000000     0.580000000     4.641000000
C     2.770000000    -0.519000000     4.520000000
H     2.329000000    -1.511000000     4.462000000
C     2.441000000     1.821000000     4.731000000
H     1.771000000     2.665000000     4.588000000
C     3.836000000     1.990000000     4.727000000
O     4.341000000     3.291000000     4.485000000
C     4.645000000     0.932000000     4.833000000
H     5.711000000     1.122000000     4.929000000
C     4.145000000    -0.357000000     4.669000000
O     5.030000000    -1.348000000     4.662000000
C     4.742000000    -2.664000000     4.338000000
C     4.909000000    -3.010000000     3.022000000
H     5.173000000    -2.267000000     2.274000000
C     4.372000000    -3.628000000     5.309000000
H     4.294000000    -3.416000000     6.373000000
C     4.122000000    -4.912000000     4.929000000
H     3.780000000    -5.670000000     5.629000000
C     4.312000000    -5.283000000     3.576000000
H     4.154000000    -6.336000000     3.352000000
C     4.628000000    -4.343000000     2.621000000
O     4.754000000    -4.749000000     1.315000000
C     3.691000000    -4.782000000     0.452000000
C     3.922000000    -4.997000000    -0.884000000
H     4.935000000    -5.205000000    -1.219000000
C     2.878000000    -4.888000000    -1.858000000
O     3.281000000    -4.944000000    -3.158000000
C     2.428000000    -4.789000000    -4.216000000
C     2.427000000    -3.614000000    -4.931000000
H     3.200000000    -2.908000000    -4.641000000
C     1.489000000    -5.827000000    -4.480000000
H     1.359000000    -6.648000000    -3.779000000
C     0.579000000    -5.674000000    -5.502000000
H    -0.206000000    -6.426000000    -5.492000000
C     0.585000000    -4.430000000    -6.228000000
H    -0.202000000    -4.245000000    -6.955000000
C     1.530000000    -3.431000000    -6.001000000
O     1.417000000    -2.184000000    -6.621000000
C     0.508000000    -1.265000000    -6.265000000
C     0.645000000    -0.021000000    -6.935000000
H     1.425000000     0.120000000    -7.678000000
C    -0.235000000     1.007000000    -6.548000000
O     0.033000000     2.301000000    -6.998000000
C    -0.023000000     3.475000000    -6.209000000
C     0.708000000     3.515000000    -4.986000000
H     1.305000000     2.649000000    -4.713000000
C    -0.656000000     4.608000000    -6.667000000
H    -1.149000000     4.654000000    -7.635000000
C    -0.643000000     5.768000000    -5.806000000
H    -1.122000000     6.696000000    -6.107000000
C     0.090000000     5.839000000    -4.648000000
H     0.115000000     6.820000000    -4.180000000
C     0.814000000     4.689000000    -4.203000000
O     1.570000000     4.786000000    -3.095000000
C     1.174000000     5.032000000    -1.800000000
C     2.032000000     5.639000000    -0.908000000
H     3.008000000     6.059000000    -1.137000000
C     1.751000000     5.595000000     0.475000000
O     2.682000000     6.163000000     1.277000000
C     2.677000000     5.935000000     2.626000000
C     1.710000000     6.405000000     3.491000000
H     1.021000000     7.177000000     3.156000000
C     1.818000000     5.954000000     4.814000000
H     1.090000000     6.373000000     5.504000000
C     2.717000000     4.901000000     5.238000000
H     2.781000000     4.506000000     6.249000000
C     3.560000000     4.385000000     4.237000000
C     3.527000000     4.950000000     2.974000000
H     4.213000000     4.559000000     2.227000000
C     2.156000000    -0.487000000     0.160000000
H     3.114000000    -0.772000000     0.587000000
C     0.897000000    -0.742000000     0.709000000
H     0.770000000    -1.225000000     1.674000000
C    -0.230000000    -0.252000000     0.019000000
C    -1.546000000    -0.297000000     0.701000000
H    -1.977000000    -1.298000000     0.633000000
H    -1.496000000     0.133000000     1.704000000
H    -2.239000000     0.380000000     0.197000000
C    -0.041000000     0.350000000    -1.239000000
H    -0.909000000     0.864000000    -1.642000000
C     1.175000000     0.650000000    -1.765000000
H     1.294000000     1.145000000    -2.725000000
C     2.301000000     0.130000000    -1.126000000
C     3.677000000     0.344000000    -1.672000000
O     3.778000000     0.754000000    -2.750000000
O     4.519000000     0.207000000    -0.830000000
O     4.166000000     2.854000000     0.089000000
H     4.529000000     1.969000000     0.043000000
H     3.366000000     2.812000000    -0.435000000
O     7.373000000     1.721000000    -6.367000000
H     6.489000000     1.606000000    -6.018000000
H     7.813000000     0.891000000    -6.181000000
O     7.085000000     5.421000000    -3.497000000
H     6.861000000     5.206000000    -2.592000000
H     7.145000000     4.572000000    -3.936000000
O     8.584000000     2.817000000    -3.167000000
H     8.426000000     2.413000000    -2.313000000
H     8.752000000     2.079000000    -3.753000000
O     5.931000000    -2.021000000    -0.793000000
H     5.436000000    -1.204000000    -0.739000000
H     6.776000000    -1.766000000    -1.163000000
O     4.779000000     3.677000000    -5.560000000
H     4.529000000     3.186000000    -4.777000000
H     4.289000000     4.496000000    -5.495000000
O     8.642000000    -1.546000000    -1.706000000
H     9.439000000    -1.446000000    -1.185000000
H     8.932000000    -1.989000000    -2.503000000
O     4.371000000     3.433000000    -2.807000000
H     5.203000000     3.600000000    -2.364000000
H     4.236000000     2.490000000    -2.717000000
O     8.613000000     4.745000000     0.166000000
H     9.265000000     4.738000000    -0.535000000
H     7.780000000     4.594000000    -0.279000000
O     7.811000000    -0.422000000     3.612000000
H     7.385000000    -0.372000000     4.467000000
H     7.228000000     0.060000000     3.025000000
O     6.049000000     0.860000000     2.115000000
H     5.404000000     0.319000000     1.659000000
H     5.684000000     1.745000000     2.083000000
O     4.054000000     1.605000000    -7.586000000
H     4.444000000     2.269000000    -7.017000000
H     3.786000000     0.905000000    -6.990000000
O     4.930000000     0.645000000    -5.053000000
H     5.718000000     0.179000000    -4.772000000
H     4.423000000     0.764000000    -4.250000000
O     6.187000000     4.735000000    -0.798000000
H     6.236000000     5.422000000    -0.133000000
H     5.497000000     4.149000000    -0.486000000
O     5.881000000    -3.783000000    -2.718000000
H     5.176000000    -3.451000000    -3.274000000
H     5.816000000    -3.266000000    -1.915000000
O     7.089000000    -1.008000000    -4.576000000
H     7.377000000    -1.616000000    -3.896000000
H     7.785000000    -0.352000000    -4.621000000
O     7.880000000    -3.438000000     1.224000000
H     7.190000000    -3.087000000     0.660000000
H     8.682000000    -3.019000000     0.910000000
O     4.269000000     5.882000000    -3.998000000
H     5.225000000     5.923000000    -3.995000000
H     4.059000000     5.154000000    -3.413000000
O     6.948000000     1.050000000    -1.280000000
H     7.378000000     0.197000000    -1.220000000
H     6.017000000     0.857000000    -1.174000000
