218
-1482.79872
C     1.371000000    -4.864000000    -1.548000000
H     0.502000000    -4.700000000    -2.180000000
C     1.252000000    -4.701000000    -0.172000000
C     2.408000000    -4.698000000     0.647000000
H     2.286000000    -4.554000000     1.718000000
C    -0.131000000    -4.278000000     0.361000000
O    -1.266000000    -4.723000000    -0.487000000
H    -0.137000000    -3.182000000     0.451000000
O    -0.370000000    -4.686000000     1.740000000
C    -0.940000000    -3.685000000     2.520000000
C    -0.086000000    -3.017000000     3.352000000
H     0.981000000    -3.140000000     3.186000000
C    -0.472000000    -2.019000000     4.194000000
O     0.482000000    -1.338000000     4.879000000
C    -1.872000000    -1.739000000     4.248000000
C    -2.357000000    -0.570000000     5.043000000
H    -3.407000000    -0.642000000     5.336000000
C    -2.198000000     0.736000000     4.360000000
C    -3.291000000     1.135000000     3.524000000
H    -4.282000000     0.692000000     3.462000000
H    -1.971000000    -0.567000000     6.065000000
C    -2.761000000    -2.552000000     3.475000000
H    -3.811000000    -2.335000000     3.649000000
C    -2.316000000    -3.465000000     2.560000000
C    -3.232000000    -4.209000000     1.621000000
H    -4.217000000    -4.453000000     2.025000000
H    -2.721000000    -5.166000000     1.496000000
C    -3.318000000    -3.525000000     0.238000000
C    -4.370000000    -2.678000000    -0.094000000
H    -5.154000000    -2.409000000     0.609000000
C    -2.331000000    -3.835000000    -0.729000000
C    -2.405000000    -3.219000000    -1.960000000
H    -1.632000000    -3.424000000    -2.697000000
C    -3.504000000    -2.379000000    -2.284000000
O    -3.350000000    -1.697000000    -3.487000000
C    -2.841000000    -0.335000000    -3.510000000
C    -1.821000000    -0.067000000    -4.648000000
C    -1.662000000     1.225000000    -5.203000000
H    -2.152000000     2.141000000    -4.883000000
C    -1.130000000    -1.137000000    -5.230000000
H    -1.165000000    -2.072000000    -4.678000000
O    -3.926000000     0.645000000    -3.466000000
H    -2.216000000    -0.201000000    -2.615000000
C    -4.451000000    -2.016000000    -1.322000000
C    -5.447000000    -0.846000000    -1.548000000
H    -6.300000000    -0.925000000    -0.872000000
H    -5.942000000    -0.881000000    -2.521000000
C    -4.824000000     0.475000000    -1.225000000
C    -4.808000000     0.899000000     0.098000000
H    -5.296000000     0.255000000     0.824000000
C    -4.095000000     1.178000000    -2.226000000
C    -3.439000000     2.319000000    -1.851000000
H    -2.952000000     2.940000000    -2.599000000
C    -3.619000000     2.817000000    -0.556000000
O    -2.830000000     3.975000000    -0.192000000
C    -1.536000000     3.742000000     0.454000000
C    -0.365000000     4.501000000    -0.106000000
C    -0.396000000     4.917000000    -1.455000000
H    -1.263000000     4.924000000    -2.112000000
C     0.803000000     4.523000000     0.593000000
H     0.784000000     4.137000000     1.609000000
O    -1.771000000     4.008000000     1.853000000
H    -1.274000000     2.684000000     0.307000000
C    -4.277000000     2.135000000     0.435000000
C    -4.351000000     2.646000000     1.844000000
H    -5.260000000     2.366000000     2.380000000
H    -4.418000000     3.736000000     1.835000000
C    -3.119000000     2.247000000     2.657000000
C    -1.885000000     2.913000000     2.614000000
C    -0.863000000     2.510000000     3.474000000
H     0.039000000     3.116000000     3.498000000
C    -1.009000000     1.435000000     4.367000000
O     0.055000000     0.919000000     5.054000000
C     0.866000000    -0.050000000     4.421000000
H     0.702000000    -0.132000000     3.337000000
C     2.334000000     0.303000000     4.538000000
C     3.316000000    -0.621000000     4.097000000
H     2.945000000    -1.575000000     3.730000000
C     2.762000000     1.619000000     4.842000000
H     2.022000000     2.386000000     5.057000000
C     4.099000000     1.981000000     4.754000000
O     4.508000000     3.284000000     5.016000000
C     5.030000000     1.010000000     4.320000000
H     6.089000000     1.237000000     4.414000000
C     4.649000000    -0.311000000     4.002000000
O     5.543000000    -1.117000000     3.371000000
C     5.518000000    -2.471000000     3.346000000
C     5.167000000    -3.109000000     2.122000000
H     4.948000000    -2.473000000     1.268000000
C     5.605000000    -3.199000000     4.496000000
H     5.870000000    -2.648000000     5.395000000
C     5.372000000    -4.536000000     4.532000000
H     5.347000000    -5.114000000     5.452000000
C     5.114000000    -5.215000000     3.289000000
H     4.919000000    -6.284000000     3.339000000
C     5.061000000    -4.529000000     2.070000000
O     4.786000000    -5.177000000     0.871000000
C     3.666000000    -5.000000000     0.079000000
C     3.742000000    -5.166000000    -1.248000000
H     4.691000000    -5.412000000    -1.719000000
C     2.612000000    -5.017000000    -2.092000000
O     2.857000000    -5.001000000    -3.474000000
C     1.780000000    -4.724000000    -4.339000000
C     1.784000000    -3.455000000    -4.893000000
H     2.546000000    -2.827000000    -4.439000000
C     0.872000000    -5.722000000    -4.679000000
H     0.915000000    -6.747000000    -4.319000000
C    -0.120000000    -5.350000000    -5.581000000
H    -0.898000000    -6.054000000    -5.865000000
C    -0.173000000    -4.042000000    -6.124000000
H    -1.014000000    -3.817000000    -6.774000000
C     0.839000000    -3.138000000    -5.880000000
O     0.801000000    -1.902000000    -6.439000000
C    -0.134000000    -0.940000000    -6.181000000
C     0.059000000     0.368000000    -6.645000000
H     0.795000000     0.519000000    -7.431000000
C    -0.713000000     1.433000000    -6.157000000
O    -0.568000000     2.674000000    -6.731000000
C    -0.673000000     3.864000000    -6.073000000
C     0.139000000     4.292000000    -5.012000000
H     1.009000000     3.737000000    -4.671000000
C    -1.705000000     4.720000000    -6.402000000
H    -2.349000000     4.533000000    -7.258000000
C    -1.939000000     5.948000000    -5.783000000
H    -2.829000000     6.520000000    -6.034000000
C    -1.127000000     6.317000000    -4.714000000
H    -1.188000000     7.242000000    -4.147000000
C    -0.127000000     5.480000000    -4.346000000
O     0.784000000     5.850000000    -3.396000000
C     0.765000000     5.430000000    -2.110000000
C     1.972000000     5.294000000    -1.410000000
H     2.864000000     5.645000000    -1.923000000
C     1.984000000     4.939000000    -0.056000000
O     3.209000000     4.922000000     0.630000000
C     3.280000000     5.055000000     2.026000000
C     2.638000000     6.111000000     2.657000000
H     2.071000000     6.834000000     2.078000000
C     2.673000000     6.193000000     4.043000000
H     2.097000000     7.055000000     4.371000000
C     3.320000000     5.264000000     4.847000000
H     3.338000000     5.314000000     5.932000000
C     3.976000000     4.211000000     4.212000000
C     3.990000000     4.110000000     2.788000000
H     4.526000000     3.276000000     2.342000000
C     1.201000000    -0.207000000    -2.451000000
H     1.393000000    -0.746000000    -3.374000000
C     0.305000000    -0.643000000    -1.426000000
H    -0.129000000    -1.611000000    -1.661000000
C     0.005000000     0.193000000    -0.346000000
C    -1.043000000    -0.247000000     0.585000000
H    -0.840000000    -1.223000000     1.030000000
H    -0.964000000     0.528000000     1.350000000
H    -2.090000000    -0.210000000     0.279000000
C     0.788000000     1.248000000    -0.091000000
H     0.755000000     1.733000000     0.881000000
C     1.806000000     1.614000000    -1.003000000
H     2.458000000     2.478000000    -0.902000000
C     1.929000000     0.926000000    -2.213000000
C     2.984000000     1.306000000    -3.197000000
O     3.304000000     2.482000000    -3.242000000
O     3.520000000     0.486000000    -3.953000000
O     5.788000000    -1.963000000    -6.873000000
H     5.036000000    -1.371000000    -6.837000000
H     5.746000000    -2.350000000    -7.748000000
O     4.493000000    -1.493000000    -2.684000000
H     4.924000000    -2.159000000    -3.220000000
H     4.186000000    -0.841000000    -3.314000000
O     4.553000000     6.533000000    -4.262000000
H     4.164000000     7.173000000    -3.666000000
H     4.180000000     6.746000000    -5.118000000
O     8.836000000     3.020000000    -2.861000000
H     7.900000000     3.124000000    -3.036000000
H     8.968000000     3.434000000    -2.008000000
O     3.778000000     3.964000000    -5.226000000
H     3.397000000     3.352000000    -4.596000000
H     3.787000000     4.805000000    -4.767000000
O     6.600000000    -0.182000000    -1.025000000
H     6.281000000     0.056000000    -1.896000000
H     6.275000000     0.513000000    -0.453000000
O     3.176000000     4.049000000    -7.930000000
H     3.362000000     4.200000000    -7.003000000
H     2.392000000     4.568000000    -8.105000000
O     7.098000000     0.603000000    -4.111000000
H     6.560000000     0.506000000    -4.897000000
H     7.636000000    -0.189000000    -4.090000000
O     3.427000000    -0.833000000    -0.273000000
H     2.492000000    -0.836000000    -0.479000000
H     3.858000000    -0.989000000    -1.114000000
O     5.843000000    -3.380000000    -4.367000000
H     5.986000000    -4.266000000    -4.700000000
H     5.818000000    -2.831000000    -5.151000000
O     5.082000000     1.097000000     1.037000000
H     4.393000000     1.755000000     1.136000000
H     4.617000000     0.301000000     0.780000000
O     3.508000000    -0.724000000    -6.186000000
H     2.671000000    -1.186000000    -6.238000000
H     3.450000000    -0.215000000    -5.378000000
O     6.991000000     5.468000000    -3.405000000
H     6.636000000     4.580000000    -3.408000000
H     6.282000000     6.011000000    -3.750000000
O     9.430000000     0.065000000    -1.171000000
H     9.758000000     0.517000000    -1.949000000
H     8.484000000     0.214000000    -1.190000000
O     7.378000000    -3.226000000    -1.925000000
H     7.146000000    -2.368000000    -1.570000000
H     6.870000000    -3.297000000    -2.733000000
O     5.154000000     1.676000000    -6.036000000
H     4.484000000     1.211000000    -5.534000000
H     4.920000000     2.600000000    -5.950000000
O     4.018000000     1.104000000    -8.294000000
H     4.397000000     1.105000000    -7.414000000
H     3.537000000     1.930000000    -8.348000000
O     5.873000000     2.691000000    -2.823000000
H     6.128000000     1.793000000    -3.036000000
H     4.945000000     2.737000000    -3.053000000
O     6.896000000     3.669000000     1.557000000
H     7.139000000     3.649000000     2.483000000
H     6.487000000     2.818000000     1.399000000
