218
-1454.69801
C     1.861000000    -4.411000000    -2.655000000
H     0.903000000    -4.323000000    -3.160000000
C     1.740000000    -4.398000000    -1.285000000
C     2.894000000    -4.390000000    -0.513000000
H     2.757000000    -4.332000000     0.564000000
C     0.377000000    -4.274000000    -0.632000000
O    -0.684000000    -4.721000000    -1.524000000
H     0.198000000    -3.212000000    -0.405000000
O     0.283000000    -4.896000000     0.677000000
C    -0.466000000    -4.290000000     1.707000000
C     0.302000000    -3.648000000     2.651000000
H     1.380000000    -3.772000000     2.723000000
C    -0.231000000    -2.834000000     3.604000000
O     0.504000000    -2.166000000     4.553000000
C    -1.632000000    -2.706000000     3.584000000
C    -2.346000000    -1.849000000     4.687000000
H    -3.358000000    -2.167000000     4.946000000
C    -2.378000000    -0.383000000     4.261000000
C    -3.530000000     0.128000000     3.698000000
H    -4.375000000    -0.542000000     3.565000000
H    -1.803000000    -1.868000000     5.634000000
C    -2.480000000    -3.395000000     2.669000000
H    -3.552000000    -3.309000000     2.831000000
C    -1.841000000    -4.224000000     1.747000000
C    -2.601000000    -4.892000000     0.640000000
H    -3.602000000    -5.139000000     1.001000000
H    -2.114000000    -5.823000000     0.342000000
C    -2.702000000    -3.881000000    -0.528000000
C    -3.741000000    -2.958000000    -0.604000000
H    -4.502000000    -3.041000000     0.168000000
C    -1.773000000    -3.857000000    -1.552000000
C    -1.897000000    -2.973000000    -2.656000000
H    -1.200000000    -2.998000000    -3.489000000
C    -2.857000000    -1.971000000    -2.627000000
O    -2.881000000    -1.115000000    -3.710000000
C    -2.502000000     0.257000000    -3.353000000
C    -1.578000000     0.771000000    -4.446000000
C    -1.655000000     2.083000000    -4.806000000
H    -2.357000000     2.837000000    -4.460000000
C    -0.603000000    -0.065000000    -4.945000000
H    -0.566000000    -1.110000000    -4.649000000
O    -3.642000000     1.119000000    -3.136000000
H    -1.862000000     0.254000000    -2.458000000
C    -3.820000000    -1.968000000    -1.609000000
C    -5.025000000    -1.128000000    -1.662000000
H    -5.853000000    -1.477000000    -1.042000000
H    -5.435000000    -1.133000000    -2.675000000
C    -4.743000000     0.257000000    -1.095000000
C    -4.983000000     0.464000000     0.273000000
H    -5.394000000    -0.368000000     0.839000000
C    -4.132000000     1.260000000    -1.887000000
C    -3.773000000     2.501000000    -1.338000000
H    -3.246000000     3.177000000    -2.006000000
C    -3.945000000     2.668000000     0.042000000
O    -3.323000000     3.784000000     0.636000000
C    -2.066000000     3.586000000     1.330000000
C    -0.943000000     4.616000000     1.015000000
C    -0.767000000     4.981000000    -0.269000000
H    -1.436000000     4.546000000    -1.008000000
C    -0.123000000     5.024000000     2.025000000
H    -0.280000000     4.643000000     3.031000000
O    -2.334000000     3.515000000     2.764000000
H    -1.698000000     2.596000000     1.020000000
C    -4.543000000     1.667000000     0.859000000
C    -4.653000000     1.877000000     2.348000000
H    -5.495000000     1.268000000     2.682000000
H    -4.849000000     2.932000000     2.554000000
C    -3.506000000     1.352000000     3.077000000
C    -2.365000000     2.243000000     3.235000000
C    -1.248000000     1.825000000     3.954000000
H    -0.429000000     2.521000000     4.116000000
C    -1.253000000     0.498000000     4.411000000
O    -0.101000000    -0.003000000     4.977000000
C     0.776000000    -0.824000000     4.140000000
H     0.531000000    -0.651000000     3.081000000
C     2.272000000    -0.523000000     4.265000000
C     3.254000000    -1.499000000     4.175000000
H     2.832000000    -2.498000000     4.091000000
C     2.659000000     0.816000000     4.318000000
H     1.880000000     1.572000000     4.370000000
C     4.017000000     1.197000000     4.274000000
O     4.363000000     2.533000000     4.509000000
C     4.936000000     0.187000000     4.143000000
H     5.981000000     0.488000000     4.128000000
C     4.575000000    -1.115000000     4.082000000
O     5.545000000    -2.066000000     3.863000000
C     5.384000000    -3.217000000     3.107000000
C     5.488000000    -3.153000000     1.713000000
H     5.570000000    -2.222000000     1.157000000
C     5.173000000    -4.484000000     3.658000000
H     5.071000000    -4.471000000     4.740000000
C     5.007000000    -5.607000000     2.886000000
H     4.815000000    -6.562000000     3.369000000
C     5.024000000    -5.522000000     1.545000000
H     4.778000000    -6.345000000     0.879000000
C     5.350000000    -4.307000000     0.928000000
O     5.300000000    -4.295000000    -0.384000000
C     4.145000000    -4.365000000    -1.119000000
C     4.256000000    -4.388000000    -2.532000000
H     5.279000000    -4.520000000    -2.878000000
C     3.107000000    -4.354000000    -3.318000000
O     3.275000000    -4.391000000    -4.696000000
C     2.472000000    -3.694000000    -5.491000000
C     2.481000000    -2.315000000    -5.396000000
H     3.273000000    -1.741000000    -4.922000000
C     1.562000000    -4.338000000    -6.404000000
H     1.561000000    -5.424000000    -6.450000000
C     0.608000000    -3.645000000    -7.080000000
H    -0.224000000    -4.222000000    -7.474000000
C     0.639000000    -2.256000000    -6.986000000
H    -0.050000000    -1.623000000    -7.539000000
C     1.472000000    -1.614000000    -6.074000000
O     1.481000000    -0.258000000    -6.158000000
C     0.356000000     0.446000000    -5.803000000
C     0.273000000     1.859000000    -6.212000000
H     1.130000000     2.286000000    -6.727000000
C    -0.672000000     2.628000000    -5.644000000
O    -0.732000000     3.946000000    -5.896000000
C    -0.985000000     4.966000000    -5.054000000
C    -0.242000000     5.015000000    -3.848000000
H     0.574000000     4.313000000    -3.699000000
C    -1.966000000     5.900000000    -5.346000000
H    -2.321000000     5.907000000    -6.373000000
C    -2.233000000     6.914000000    -4.464000000
H    -2.960000000     7.688000000    -4.696000000
C    -1.426000000     6.999000000    -3.333000000
H    -1.612000000     7.842000000    -2.673000000
C    -0.507000000     6.051000000    -2.945000000
O     0.362000000     6.422000000    -1.948000000
C     0.155000000     5.997000000    -0.625000000
C     1.044000000     6.348000000     0.360000000
H     1.787000000     7.103000000     0.118000000
C     0.927000000     5.868000000     1.666000000
O     1.887000000     6.254000000     2.609000000
C     2.189000000     5.444000000     3.611000000
C     1.497000000     5.536000000     4.792000000
H     0.664000000     6.229000000     4.877000000
C     1.779000000     4.684000000     5.885000000
H     1.289000000     4.848000000     6.841000000
C     2.771000000     3.736000000     5.754000000
H     2.962000000     3.096000000     6.612000000
C     3.451000000     3.574000000     4.556000000
C     3.096000000     4.381000000     3.427000000
H     3.482000000     4.256000000     2.418000000
C     1.627000000     0.857000000    -2.371000000
H     1.969000000     0.549000000    -3.356000000
C     0.893000000    -0.047000000    -1.584000000
H     0.570000000    -1.035000000    -1.901000000
C     0.444000000     0.336000000    -0.360000000
C    -0.370000000    -0.632000000     0.447000000
H    -0.834000000    -0.033000000     1.233000000
H    -1.054000000    -1.142000000    -0.234000000
H     0.278000000    -1.373000000     0.920000000
C     0.683000000     1.617000000     0.091000000
H     0.173000000     1.846000000     1.023000000
C     1.462000000     2.487000000    -0.665000000
H     1.583000000     3.489000000    -0.259000000
C     1.976000000     2.121000000    -1.885000000
C     2.880000000     3.090000000    -2.706000000
O     3.032000000     4.211000000    -2.325000000
O     3.302000000     2.688000000    -3.781000000
O     7.411000000     1.536000000    -7.738000000
H     8.004000000     2.098000000    -8.237000000
H     7.052000000     2.108000000    -7.060000000
O     5.488000000     4.253000000    -3.683000000
H     4.668000000     3.825000000    -3.437000000
H     5.690000000     4.828000000    -2.945000000
O     3.858000000     6.748000000    -7.571000000
H     3.205000000     6.969000000    -8.235000000
H     3.408000000     6.139000000    -6.986000000
O     3.290000000     6.620000000    -3.498000000
H     3.158000000     5.725000000    -3.187000000
H     2.542000000     7.107000000    -3.153000000
O     2.769000000     4.735000000    -5.909000000
H     2.706000000     5.480000000    -5.311000000
H     2.825000000     3.971000000    -5.335000000
O     6.336000000     6.410000000     1.510000000
H     5.853000000     5.811000000     0.941000000
H     7.178000000     5.977000000     1.654000000
O     7.422000000     5.463000000    -4.772000000
H     6.624000000     5.019000000    -4.488000000
H     7.278000000     5.645000000    -5.701000000
O     6.934000000     5.319000000    -1.449000000
H     6.579000000     6.192000000    -1.282000000
H     6.350000000     4.728000000    -0.974000000
O     4.548000000     0.695000000    -5.027000000
H     4.029000000     1.337000000    -4.544000000
H     4.363000000     0.880000000    -5.948000000
O     6.115000000     7.902000000    -0.576000000
H     6.325000000     8.768000000    -0.225000000
H     6.325000000     7.298000000     0.137000000
O     4.725000000     4.573000000     0.024000000
H     4.052000000     4.585000000    -0.656000000
H     4.504000000     3.815000000     0.567000000
O     5.883000000     7.674000000    -4.028000000
H     6.574000000     7.019000000    -3.931000000
H     5.075000000     7.164000000    -4.083000000
O     8.801000000     2.796000000    -4.201000000
H     7.952000000     3.151000000    -4.465000000
H     9.228000000     2.560000000    -5.025000000
O     7.506000000    -0.007000000    -5.126000000
H     6.863000000     0.605000000    -5.487000000
H     7.836000000     0.429000000    -4.340000000
O     6.112000000     3.143000000    -6.183000000
H     5.837000000     3.552000000    -5.362000000
H     5.985000000     3.823000000    -6.844000000
O     1.371000000     9.038000000    -2.393000000
H     0.838000000     9.679000000    -2.862000000
H     0.742000000     8.538000000    -1.872000000
O     4.627000000    -0.224000000    -2.493000000
H     3.700000000    -0.008000000    -2.389000000
H     4.758000000    -0.269000000    -3.440000000
O     6.657000000     1.445000000     1.766000000
H     5.819000000     1.473000000     1.304000000
H     6.671000000     2.247000000     2.288000000
O     4.387000000     0.967000000     0.173000000
H     4.875000000     0.547000000    -0.536000000
H     3.486000000     1.007000000    -0.148000000
