218
-1473.03354
C     1.698000000    -4.058000000    -3.235000000
H     0.689000000    -4.024000000    -3.637000000
C     1.824000000    -4.167000000    -1.836000000
C     3.086000000    -4.044000000    -1.289000000
H     3.223000000    -4.168000000    -0.218000000
C     0.599000000    -4.102000000    -0.964000000
O    -0.584000000    -4.593000000    -1.707000000
H     0.525000000    -3.069000000    -0.592000000
O     0.805000000    -4.976000000     0.186000000
C     0.435000000    -4.300000000     1.377000000
C     1.324000000    -3.561000000     2.178000000
H     2.350000000    -3.329000000     1.902000000
C     0.883000000    -2.935000000     3.391000000
O     1.872000000    -2.205000000     4.051000000
C    -0.464000000    -2.954000000     3.704000000
C    -0.898000000    -2.135000000     5.026000000
H    -1.799000000    -2.557000000     5.477000000
C    -1.218000000    -0.679000000     4.628000000
C    -2.538000000    -0.279000000     4.375000000
H    -3.358000000    -0.991000000     4.417000000
H    -0.178000000    -2.212000000     5.843000000
C    -1.369000000    -3.657000000     2.901000000
H    -2.373000000    -3.857000000     3.269000000
C    -0.933000000    -4.338000000     1.772000000
C    -1.904000000    -5.081000000     0.941000000
H    -2.672000000    -5.509000000     1.589000000
H    -1.478000000    -5.965000000     0.463000000
C    -2.478000000    -4.242000000    -0.175000000
C    -3.609000000    -3.443000000     0.078000000
H    -4.219000000    -3.513000000     0.975000000
C    -1.817000000    -4.064000000    -1.418000000
C    -2.288000000    -3.176000000    -2.368000000
H    -1.803000000    -3.033000000    -3.330000000
C    -3.349000000    -2.349000000    -2.106000000
O    -3.687000000    -1.476000000    -3.094000000
C    -3.394000000    -0.071000000    -2.811000000
C    -2.765000000     0.603000000    -3.978000000
C    -2.857000000     2.009000000    -4.113000000
H    -3.499000000     2.594000000    -3.459000000
C    -2.052000000    -0.154000000    -4.933000000
H    -1.917000000    -1.195000000    -4.648000000
O    -4.515000000     0.645000000    -2.299000000
H    -2.625000000    -0.069000000    -2.025000000
C    -4.068000000    -2.551000000    -0.942000000
C    -5.257000000    -1.667000000    -0.666000000
H    -6.060000000    -2.077000000    -0.049000000
H    -5.724000000    -1.577000000    -1.649000000
C    -4.781000000    -0.304000000    -0.103000000
C    -4.634000000    -0.174000000     1.269000000
H    -4.979000000    -0.924000000     1.976000000
C    -4.614000000     0.835000000    -0.889000000
C    -4.070000000     1.976000000    -0.323000000
H    -3.780000000     2.834000000    -0.923000000
C    -3.885000000     2.077000000     1.032000000
O    -3.347000000     3.246000000     1.451000000
C    -2.027000000     3.163000000     1.835000000
C    -1.176000000     4.306000000     1.334000000
C    -1.140000000     4.525000000    -0.047000000
H    -1.728000000     3.926000000    -0.738000000
C    -0.357000000     5.012000000     2.195000000
H    -0.352000000     4.802000000     3.262000000
O    -2.036000000     3.122000000     3.278000000
H    -1.583000000     2.231000000     1.454000000
C    -4.285000000     1.008000000     1.882000000
C    -4.220000000     1.206000000     3.435000000
H    -5.003000000     0.581000000     3.869000000
H    -4.581000000     2.208000000     3.677000000
C    -2.839000000     0.958000000     3.919000000
C    -1.807000000     1.907000000     3.805000000
C    -0.495000000     1.607000000     4.086000000
H     0.210000000     2.433000000     4.033000000
C    -0.237000000     0.350000000     4.583000000
O     1.106000000     0.022000000     4.822000000
C     1.857000000    -0.751000000     3.833000000
H     1.356000000    -0.619000000     2.862000000
C     3.237000000    -0.192000000     3.618000000
C     4.312000000    -0.956000000     3.176000000
H     4.147000000    -2.026000000     3.081000000
C     3.383000000     1.224000000     3.682000000
H     2.530000000     1.881000000     3.831000000
C     4.646000000     1.819000000     3.317000000
O     4.838000000     3.186000000     3.346000000
C     5.696000000     1.016000000     2.858000000
H     6.541000000     1.504000000     2.379000000
C     5.504000000    -0.347000000     2.721000000
O     6.576000000    -1.142000000     2.260000000
C     6.348000000    -2.415000000     1.715000000
C     6.041000000    -2.539000000     0.367000000
H     5.960000000    -1.658000000    -0.265000000
C     6.572000000    -3.511000000     2.473000000
H     6.861000000    -3.352000000     3.509000000
C     6.237000000    -4.765000000     2.020000000
H     6.272000000    -5.677000000     2.610000000
C     5.805000000    -4.840000000     0.691000000
H     5.593000000    -5.823000000     0.279000000
C     5.760000000    -3.753000000    -0.134000000
O     5.459000000    -3.813000000    -1.505000000
C     4.203000000    -3.941000000    -2.081000000
C     4.024000000    -3.741000000    -3.462000000
H     4.880000000    -3.413000000    -4.046000000
C     2.730000000    -3.871000000    -4.035000000
O     2.592000000    -3.614000000    -5.373000000
C     1.393000000    -3.283000000    -5.933000000
C     1.131000000    -1.868000000    -6.148000000
H     1.932000000    -1.156000000    -5.963000000
C     0.393000000    -4.227000000    -6.204000000
H     0.567000000    -5.278000000    -5.988000000
C    -0.854000000    -3.811000000    -6.562000000
H    -1.644000000    -4.544000000    -6.704000000
C    -1.124000000    -2.452000000    -6.796000000
H    -2.103000000    -2.152000000    -7.161000000
C    -0.089000000    -1.505000000    -6.633000000
O    -0.401000000    -0.158000000    -6.693000000
C    -1.262000000     0.484000000    -5.889000000
C    -1.502000000     1.810000000    -6.193000000
H    -0.973000000     2.312000000    -6.999000000
C    -2.309000000     2.567000000    -5.303000000
O    -2.411000000     3.946000000    -5.590000000
C    -2.308000000     4.833000000    -4.627000000
C    -1.299000000     4.810000000    -3.678000000
H    -0.510000000     4.065000000    -3.740000000
C    -3.421000000     5.675000000    -4.481000000
H    -4.296000000     5.616000000    -5.123000000
C    -3.454000000     6.546000000    -3.376000000
H    -4.282000000     7.194000000    -3.099000000
C    -2.371000000     6.562000000    -2.453000000
H    -2.464000000     7.238000000    -1.607000000
C    -1.248000000     5.732000000    -2.676000000
O    -0.157000000     5.808000000    -1.904000000
C    -0.276000000     5.475000000    -0.578000000
C     0.581000000     6.188000000     0.312000000
H     1.241000000     6.991000000    -0.007000000
C     0.569000000     5.936000000     1.677000000
O     1.570000000     6.482000000     2.373000000
C     2.293000000     5.751000000     3.289000000
C     1.906000000     5.790000000     4.615000000
H     1.141000000     6.507000000     4.903000000
C     2.584000000     5.086000000     5.554000000
H     2.270000000     5.144000000     6.594000000
C     3.528000000     4.171000000     5.169000000
H     3.843000000     3.583000000     6.027000000
C     3.934000000     4.080000000     3.840000000
C     3.354000000     4.913000000     2.914000000
H     3.705000000     4.912000000     1.886000000
C     1.277000000     0.470000000    -2.571000000
H     1.410000000     0.199000000    -3.615000000
C     0.331000000    -0.183000000    -1.740000000
H    -0.335000000    -0.959000000    -2.106000000
C     0.203000000     0.196000000    -0.415000000
C    -0.724000000    -0.575000000     0.529000000
H    -0.146000000    -1.021000000     1.341000000
H    -1.525000000     0.119000000     0.791000000
H    -1.187000000    -1.418000000     0.011000000
C     0.955000000     1.266000000     0.097000000
H     0.796000000     1.539000000     1.137000000
C     1.686000000     2.046000000    -0.835000000
H     2.162000000     2.964000000    -0.498000000
C     1.915000000     1.576000000    -2.113000000
C     2.848000000     2.373000000    -3.005000000
O     3.428000000     3.315000000    -2.521000000
O     2.921000000     2.070000000    -4.149000000
O     6.989000000     1.872000000    -7.462000000
H     7.335000000     1.170000000    -6.911000000
H     6.086000000     1.986000000    -7.164000000
O     1.337000000     1.188000000    -9.066000000
H     1.653000000     1.709000000    -8.327000000
H     0.853000000     1.812000000    -9.608000000
O     6.991000000     5.705000000    -4.656000000
H     7.091000000     5.655000000    -5.607000000
H     6.526000000     4.902000000    -4.422000000
O     2.486000000     5.654000000    -3.327000000
H     2.748000000     4.777000000    -3.047000000
H     1.666000000     5.819000000    -2.861000000
O     5.102000000     3.837000000    -4.630000000
H     4.755000000     3.196000000    -5.250000000
H     4.429000000     3.904000000    -3.952000000
O     4.083000000     7.808000000    -2.926000000
H     3.973000000     8.045000000    -2.005000000
H     3.500000000     7.060000000    -3.052000000
O     1.479000000     2.041000000    -6.413000000
H     0.705000000     1.481000000    -6.352000000
H     1.740000000     2.189000000    -5.504000000
O     6.563000000     4.296000000     1.777000000
H     6.033000000     3.898000000     2.467000000
H     5.978000000     4.340000000     1.021000000
O     7.853000000     0.264000000    -5.048000000
H     8.686000000    -0.177000000    -5.214000000
H     7.189000000    -0.391000000    -5.265000000
O     8.243000000     4.529000000    -1.592000000
H     7.996000000     4.052000000    -0.799000000
H     8.196000000     3.875000000    -2.289000000
O     3.872000000     5.558000000    -6.862000000
H     3.953000000     5.635000000    -5.911000000
H     4.760000000     5.702000000    -7.190000000
O     4.311000000     1.790000000    -6.304000000
H     3.585000000     1.785000000    -5.680000000
H     4.022000000     1.214000000    -7.012000000
O     7.212000000     2.376000000    -3.341000000
H     7.568000000     1.760000000    -3.981000000
H     6.468000000     2.782000000    -3.787000000
O     5.145000000     4.551000000    -0.578000000
H     5.825000000     5.030000000    -1.053000000
H     4.635000000     4.118000000    -1.262000000
O     1.016000000     5.226000000    -5.634000000
H     1.594000000     5.868000000    -5.223000000
H     1.609000000     4.596000000    -6.043000000
O     7.657000000     1.737000000    -0.643000000
H     7.583000000     2.052000000    -1.544000000
H     6.751000000     1.659000000    -0.342000000
O     4.502000000    -0.386000000    -3.615000000
H     4.328000000     0.505000000    -3.918000000
H     4.765000000    -0.861000000    -4.403000000
O     5.006000000     1.388000000    -0.174000000
H     4.516000000     0.588000000    -0.368000000
H     4.361000000     2.090000000    -0.262000000
O     3.725000000    -0.890000000    -1.205000000
H     4.030000000    -0.690000000    -2.090000000
H     2.833000000    -1.215000000    -1.327000000
