218
-1478.15546
C     1.436000000    -2.519000000    -4.222000000
H     0.439000000    -2.148000000    -4.443000000
C     1.636000000    -3.336000000    -3.148000000
C     2.929000000    -3.633000000    -2.807000000
H     3.092000000    -4.334000000    -1.992000000
C     0.524000000    -3.658000000    -2.199000000
O    -0.761000000    -3.919000000    -2.896000000
H     0.344000000    -2.803000000    -1.530000000
O     0.848000000    -4.795000000    -1.294000000
C     0.547000000    -4.620000000     0.010000000
C     1.543000000    -4.194000000     0.876000000
H     2.576000000    -4.160000000     0.541000000
C     1.146000000    -3.879000000     2.166000000
O     2.090000000    -3.402000000     2.965000000
C    -0.161000000    -4.075000000     2.651000000
C    -0.530000000    -3.656000000     4.083000000
H    -1.409000000    -4.197000000     4.442000000
C    -0.833000000    -2.124000000     4.124000000
C    -2.116000000    -1.622000000     4.091000000
H    -2.943000000    -2.286000000     3.855000000
H     0.147000000    -3.872000000     4.912000000
C    -1.119000000    -4.500000000     1.766000000
H    -2.136000000    -4.609000000     2.133000000
C    -0.735000000    -4.684000000     0.437000000
C    -1.840000000    -5.035000000    -0.504000000
H    -2.691000000    -5.506000000    -0.008000000
H    -1.512000000    -5.796000000    -1.215000000
C    -2.415000000    -3.785000000    -1.169000000
C    -3.581000000    -3.156000000    -0.637000000
H    -4.058000000    -3.575000000     0.245000000
C    -1.903000000    -3.323000000    -2.363000000
C    -2.485000000    -2.223000000    -3.017000000
H    -2.071000000    -1.832000000    -3.943000000
C    -3.638000000    -1.616000000    -2.494000000
O    -3.952000000    -0.386000000    -3.067000000
C    -3.496000000     0.753000000    -2.382000000
C    -2.882000000     1.833000000    -3.329000000
C    -2.898000000     3.179000000    -2.947000000
H    -3.238000000     3.382000000    -1.935000000
C    -2.342000000     1.442000000    -4.528000000
H    -2.417000000     0.413000000    -4.871000000
O    -4.638000000     1.310000000    -1.610000000
H    -2.779000000     0.395000000    -1.629000000
C    -4.210000000    -2.068000000    -1.274000000
C    -5.437000000    -1.317000000    -0.674000000
H    -6.119000000    -1.982000000    -0.140000000
H    -6.116000000    -0.897000000    -1.418000000
C    -4.923000000    -0.313000000     0.240000000
C    -4.764000000    -0.563000000     1.637000000
H    -4.863000000    -1.547000000     2.087000000
C    -4.551000000     0.946000000    -0.248000000
C    -4.058000000     1.950000000     0.562000000
H    -3.723000000     2.880000000     0.110000000
C    -3.857000000     1.648000000     1.901000000
O    -3.283000000     2.628000000     2.646000000
C    -1.840000000     2.489000000     3.003000000
C    -1.064000000     3.724000000     2.726000000
C    -1.574000000     4.705000000     1.825000000
H    -2.554000000     4.615000000     1.365000000
C     0.204000000     3.897000000     3.345000000
H     0.663000000     3.089000000     3.909000000
O    -1.689000000     1.994000000     4.350000000
H    -1.422000000     1.697000000     2.364000000
C    -4.290000000     0.452000000     2.473000000
C    -3.829000000     0.131000000     3.881000000
H    -4.590000000    -0.529000000     4.303000000
H    -3.902000000     0.974000000     4.571000000
C    -2.374000000    -0.296000000     4.103000000
C    -1.354000000     0.666000000     4.297000000
C    -0.013000000     0.190000000     4.401000000
H     0.771000000     0.919000000     4.587000000
C     0.208000000    -1.217000000     4.386000000
O     1.507000000    -1.620000000     4.415000000
C     2.061000000    -1.949000000     3.118000000
H     1.552000000    -1.497000000     2.255000000
C     3.512000000    -1.387000000     3.052000000
C     4.421000000    -2.068000000     2.258000000
H     4.044000000    -2.972000000     1.787000000
C     3.833000000    -0.114000000     3.574000000
H     3.114000000     0.519000000     4.088000000
C     5.069000000     0.431000000     3.331000000
O     5.303000000     1.763000000     3.612000000
C     5.995000000    -0.308000000     2.595000000
H     6.980000000     0.085000000     2.356000000
C     5.699000000    -1.585000000     2.063000000
O     6.599000000    -2.162000000     1.260000000
C     6.349000000    -3.161000000     0.399000000
C     5.922000000    -2.776000000    -0.904000000
H     5.647000000    -1.731000000    -1.026000000
C     6.328000000    -4.508000000     0.795000000
H     6.570000000    -4.815000000     1.809000000
C     6.014000000    -5.461000000    -0.219000000
H     6.061000000    -6.496000000     0.110000000
C     5.707000000    -5.054000000    -1.518000000
H     5.444000000    -5.794000000    -2.269000000
C     5.647000000    -3.706000000    -1.828000000
O     5.361000000    -3.246000000    -3.074000000
C     4.042000000    -3.075000000    -3.482000000
C     3.824000000    -2.347000000    -4.616000000
H     4.622000000    -1.906000000    -5.207000000
C     2.553000000    -2.089000000    -5.008000000
O     2.335000000    -1.301000000    -6.115000000
C     1.138000000    -0.863000000    -6.668000000
C     0.538000000     0.419000000    -6.425000000
H     1.090000000     1.005000000    -5.695000000
C     0.322000000    -1.844000000    -7.267000000
H     0.641000000    -2.865000000    -7.460000000
C    -1.021000000    -1.542000000    -7.596000000
H    -1.593000000    -2.267000000    -8.169000000
C    -1.475000000    -0.232000000    -7.467000000
H    -2.429000000     0.033000000    -7.918000000
C    -0.714000000     0.721000000    -6.879000000
O    -1.205000000     2.040000000    -6.634000000
C    -1.805000000     2.364000000    -5.422000000
C    -1.862000000     3.720000000    -5.054000000
H    -1.428000000     4.482000000    -5.696000000
C    -2.412000000     4.140000000    -3.860000000
O    -2.273000000     5.440000000    -3.465000000
C    -2.718000000     5.959000000    -2.369000000
C    -1.804000000     6.034000000    -1.310000000
H    -0.826000000     5.592000000    -1.481000000
C    -3.953000000     6.532000000    -2.276000000
H    -4.692000000     6.494000000    -3.071000000
C    -4.298000000     7.288000000    -1.198000000
H    -5.187000000     7.912000000    -1.251000000
C    -3.415000000     7.352000000    -0.061000000
H    -3.688000000     8.055000000     0.721000000
C    -2.167000000     6.699000000    -0.191000000
O    -1.281000000     6.819000000     0.915000000
C    -0.815000000     5.843000000     1.723000000
C     0.424000000     6.118000000     2.353000000
H     0.974000000     7.032000000     2.146000000
C     0.893000000     5.112000000     3.179000000
O     2.123000000     5.334000000     3.824000000
C     2.871000000     4.357000000     4.493000000
C     2.675000000     4.142000000     5.906000000
H     1.983000000     4.704000000     6.527000000
C     3.471000000     3.220000000     6.548000000
H     3.379000000     2.972000000     7.603000000
C     4.299000000     2.343000000     5.781000000
H     4.750000000     1.473000000     6.253000000
C     4.545000000     2.599000000     4.398000000
C     3.736000000     3.570000000     3.753000000
H     3.941000000     3.773000000     2.705000000
C     0.416000000     2.351000000    -1.897000000
H     0.156000000     3.357000000    -2.215000000
C    -0.388000000     1.724000000    -0.940000000
H    -1.237000000     2.255000000    -0.517000000
C    -0.054000000     0.365000000    -0.546000000
C    -0.920000000    -0.341000000     0.419000000
H    -0.704000000     0.069000000     1.407000000
H    -1.962000000    -0.050000000     0.274000000
H    -0.808000000    -1.402000000     0.654000000
C     1.130000000    -0.181000000    -1.059000000
H     1.402000000    -1.201000000    -0.800000000
C     1.934000000     0.495000000    -1.930000000
H     2.874000000     0.054000000    -2.254000000
C     1.592000000     1.774000000    -2.420000000
C     2.561000000     2.562000000    -3.316000000
O     3.448000000     2.035000000    -3.962000000
O     2.633000000     3.793000000    -3.280000000
O     1.384000000     4.563000000    -7.228000000
H     2.165000000     4.332000000    -6.726000000
H     1.099000000     3.737000000    -7.620000000
O     5.192000000     4.173000000     0.387000000
H     6.065000000     4.379000000     0.051000000
H     4.879000000     4.996000000     0.762000000
O     5.128000000     1.322000000     0.159000000
H     5.216000000     2.195000000     0.542000000
H     4.898000000     0.759000000     0.898000000
O     0.743000000     5.781000000    -4.345000000
H     1.327000000     5.091000000    -4.030000000
H     0.709000000     5.652000000    -5.293000000
O     2.570000000     5.049000000    -0.923000000
H     2.723000000     4.595000000    -1.753000000
H     3.200000000     4.658000000    -0.318000000
O     3.395000000     1.751000000    -6.638000000
H     3.539000000     2.096000000    -5.757000000
H     3.444000000     0.800000000    -6.534000000
O     5.122000000     6.335000000    -2.531000000
H     4.522000000     6.194000000    -1.798000000
H     5.807000000     6.900000000    -2.174000000
O     5.431000000     4.053000000    -7.879000000
H     5.970000000     3.279000000    -7.718000000
H     4.742000000     4.007000000    -7.215000000
O     0.680000000     8.242000000    -2.942000000
H     1.123000000     8.094000000    -2.106000000
H     0.450000000     7.366000000    -3.250000000
O     7.795000000     0.961000000    -0.453000000
H     8.055000000     1.194000000     0.438000000
H     6.844000000     0.861000000    -0.405000000
O     1.877000000     7.461000000    -0.536000000
H     2.103000000     6.538000000    -0.416000000
H     1.232000000     7.640000000     0.149000000
O     2.699000000     2.544000000    -9.398000000
H     2.970000000     1.852000000   -10.001000000
H     3.151000000     2.339000000    -8.579000000
O     3.773000000     4.598000000    -5.780000000
H     3.550000000     4.262000000    -4.912000000
H     4.241000000     5.415000000    -5.607000000
O     7.288000000     2.028000000    -4.595000000
H     6.918000000     2.774000000    -4.123000000
H     6.766000000     1.279000000    -4.304000000
O     7.706000000    -0.724000000    -2.836000000
H     6.793000000    -0.469000000    -2.969000000
H     7.852000000    -0.607000000    -1.897000000
O     8.548000000     5.193000000    -3.062000000
H     7.757000000     4.666000000    -2.947000000
H     9.234000000     4.694000000    -2.620000000
O     5.740000000     3.843000000    -3.260000000
H     5.273000000     4.674000000    -3.179000000
H     5.081000000     3.228000000    -3.584000000
O     4.650000000     7.144000000    -5.154000000
H     3.944000000     7.790000000    -5.140000000
H     4.783000000     6.914000000    -4.235000000
O     5.453000000     0.831000000    -2.707000000
H     4.650000000     0.990000000    -3.203000000
H     5.323000000     1.300000000    -1.883000000
