218
-1458.00785
C     1.646000000    -2.319000000    -3.816000000
H     0.737000000    -1.902000000    -4.243000000
C     1.686000000    -3.170000000    -2.733000000
C     2.964000000    -3.656000000    -2.352000000
H     3.063000000    -4.404000000    -1.570000000
C     0.349000000    -3.671000000    -2.100000000
O    -0.751000000    -3.836000000    -3.034000000
H     0.175000000    -2.818000000    -1.427000000
O     0.416000000    -4.854000000    -1.348000000
C    -0.148000000    -4.849000000    -0.128000000
C     0.733000000    -4.620000000     0.959000000
H     1.757000000    -4.511000000     0.612000000
C     0.314000000    -4.329000000     2.207000000
O     1.173000000    -3.787000000     3.096000000
C    -1.096000000    -4.268000000     2.468000000
C    -1.510000000    -3.827000000     3.814000000
H    -2.484000000    -4.281000000     4.007000000
C    -1.642000000    -2.252000000     3.967000000
C    -2.949000000    -1.617000000     3.816000000
H    -3.791000000    -2.222000000     3.491000000
H    -0.762000000    -4.230000000     4.501000000
C    -1.991000000    -4.676000000     1.464000000
H    -3.068000000    -4.721000000     1.598000000
C    -1.548000000    -4.916000000     0.161000000
C    -2.494000000    -5.016000000    -0.987000000
H    -3.494000000    -5.332000000    -0.683000000
H    -2.071000000    -5.640000000    -1.778000000
C    -2.759000000    -3.658000000    -1.649000000
C    -3.863000000    -2.843000000    -1.294000000
H    -4.516000000    -3.175000000    -0.491000000
C    -1.938000000    -3.189000000    -2.736000000
C    -2.266000000    -2.010000000    -3.438000000
H    -1.585000000    -1.573000000    -4.163000000
C    -3.371000000    -1.217000000    -3.023000000
O    -3.509000000     0.047000000    -3.599000000
C    -3.061000000     1.077000000    -2.731000000
C    -2.363000000     2.159000000    -3.477000000
C    -2.233000000     3.429000000    -2.893000000
H    -2.701000000     3.638000000    -1.934000000
C    -1.498000000     1.819000000    -4.536000000
H    -1.613000000     0.857000000    -5.029000000
O    -4.190000000     1.690000000    -2.043000000
H    -2.295000000     0.805000000    -1.989000000
C    -4.127000000    -1.621000000    -1.880000000
C    -5.267000000    -0.831000000    -1.392000000
H    -5.910000000    -1.590000000    -0.941000000
H    -5.754000000    -0.349000000    -2.242000000
C    -4.869000000     0.170000000    -0.350000000
C    -4.840000000    -0.219000000     0.971000000
H    -5.205000000    -1.207000000     1.239000000
C    -4.303000000     1.383000000    -0.716000000
C    -3.830000000     2.250000000     0.257000000
H    -3.474000000     3.261000000     0.074000000
C    -3.917000000     1.887000000     1.612000000
O    -3.258000000     2.731000000     2.477000000
C    -1.960000000     2.492000000     2.931000000
C    -1.132000000     3.741000000     2.986000000
C    -1.506000000     4.899000000     2.195000000
H    -2.337000000     4.804000000     1.501000000
C    -0.047000000     3.822000000     3.832000000
H     0.175000000     3.043000000     4.557000000
O    -2.001000000     1.975000000     4.210000000
H    -1.509000000     1.805000000     2.200000000
C    -4.384000000     0.646000000     1.963000000
C    -4.377000000     0.295000000     3.469000000
H    -5.065000000    -0.509000000     3.739000000
H    -4.620000000     1.174000000     4.071000000
C    -3.058000000    -0.199000000     3.872000000
C    -1.924000000     0.582000000     4.240000000
C    -0.680000000    -0.070000000     4.452000000
H     0.252000000     0.487000000     4.506000000
C    -0.559000000    -1.445000000     4.281000000
O     0.747000000    -1.840000000     4.238000000
C     1.249000000    -2.367000000     3.065000000
H     0.645000000    -2.022000000     2.213000000
C     2.716000000    -1.808000000     2.915000000
C     3.784000000    -2.607000000     2.583000000
H     3.482000000    -3.645000000     2.474000000
C     2.952000000    -0.491000000     3.205000000
H     2.167000000     0.172000000     3.560000000
C     4.204000000     0.075000000     3.011000000
O     4.368000000     1.477000000     3.051000000
C     5.241000000    -0.676000000     2.518000000
H     6.225000000    -0.253000000     2.330000000
C     5.018000000    -2.029000000     2.300000000
O     6.043000000    -2.745000000     1.766000000
C     5.948000000    -3.754000000     0.801000000
C     5.610000000    -3.311000000    -0.474000000
H     5.298000000    -2.287000000    -0.664000000
C     6.483000000    -4.981000000     1.011000000
H     6.722000000    -5.307000000     2.020000000
C     6.531000000    -5.939000000    -0.050000000
H     7.007000000    -6.915000000    -0.016000000
C     6.171000000    -5.571000000    -1.330000000
H     6.143000000    -6.303000000    -2.134000000
C     5.647000000    -4.263000000    -1.525000000
O     5.372000000    -3.878000000    -2.793000000
C     4.088000000    -3.350000000    -3.114000000
C     4.041000000    -2.607000000    -4.249000000
H     4.840000000    -2.557000000    -4.984000000
C     2.785000000    -2.113000000    -4.591000000
O     2.764000000    -1.469000000    -5.825000000
C     1.639000000    -0.897000000    -6.351000000
C     1.374000000     0.405000000    -6.034000000
H     2.128000000     0.852000000    -5.391000000
C     0.897000000    -1.430000000    -7.397000000
H     0.961000000    -2.460000000    -7.738000000
C    -0.348000000    -0.823000000    -7.773000000
H    -0.975000000    -1.375000000    -8.468000000
C    -0.617000000     0.530000000    -7.358000000
H    -1.530000000     1.069000000    -7.599000000
C     0.298000000     1.103000000    -6.509000000
O     0.234000000     2.405000000    -6.182000000
C    -0.665000000     2.809000000    -5.134000000
C    -0.639000000     4.083000000    -4.641000000
H     0.071000000     4.781000000    -5.077000000
C    -1.389000000     4.400000000    -3.494000000
O    -1.180000000     5.656000000    -3.012000000
C    -1.875000000     6.227000000    -1.969000000
C    -1.155000000     6.419000000    -0.725000000
H    -0.192000000     5.921000000    -0.646000000
C    -3.103000000     6.714000000    -2.016000000
H    -3.652000000     6.643000000    -2.951000000
C    -3.680000000     7.369000000    -0.983000000
H    -4.643000000     7.857000000    -1.114000000
C    -2.979000000     7.594000000     0.167000000
H    -3.552000000     7.996000000     0.998000000
C    -1.666000000     7.092000000     0.324000000
O    -0.930000000     7.140000000     1.512000000
C    -0.739000000     6.041000000     2.309000000
C     0.397000000     6.105000000     3.150000000
H     1.104000000     6.931000000     3.163000000
C     0.674000000     4.967000000     3.962000000
O     1.846000000     5.041000000     4.700000000
C     2.682000000     4.055000000     4.925000000
C     3.373000000     4.006000000     6.142000000
H     3.192000000     4.758000000     6.905000000
C     4.352000000     3.022000000     6.396000000
H     4.857000000     3.021000000     7.359000000
C     4.545000000     2.083000000     5.373000000
H     5.229000000     1.271000000     5.605000000
C     3.978000000     2.168000000     4.152000000
C     2.996000000     3.123000000     3.970000000
H     2.413000000     3.138000000     3.053000000
C     1.175000000     2.281000000    -0.715000000
H     1.011000000     3.260000000    -1.158000000
C     0.060000000     1.566000000    -0.261000000
H    -0.938000000     1.992000000    -0.332000000
C     0.153000000     0.202000000    -0.045000000
C    -1.149000000    -0.614000000     0.093000000
H    -0.972000000    -1.492000000     0.718000000
H    -1.899000000    -0.034000000     0.635000000
H    -1.488000000    -0.776000000    -0.933000000
C     1.384000000    -0.441000000    -0.212000000
H     1.503000000    -1.521000000    -0.227000000
C     2.509000000     0.320000000    -0.519000000
H     3.464000000    -0.194000000    -0.594000000
C     2.428000000     1.675000000    -0.778000000
C     3.524000000     2.427000000    -1.406000000
O     4.520000000     1.921000000    -1.812000000
O     3.329000000     3.650000000    -1.617000000
O     5.630000000    -0.323000000    -6.732000000
H     5.740000000    -1.210000000    -7.073000000
H     6.212000000    -0.284000000    -5.974000000
O     7.508000000     5.675000000     1.182000000
H     7.664000000     6.580000000     0.913000000
H     7.218000000     5.742000000     2.092000000
O     6.840000000     2.773000000     0.560000000
H     7.379000000     3.479000000     0.918000000
H     6.405000000     3.165000000    -0.197000000
O     4.412000000     7.587000000    -1.265000000
H     4.067000000     6.860000000    -0.746000000
H     5.032000000     8.025000000    -0.681000000
O     4.434000000     4.148000000     1.291000000
H     4.272000000     3.657000000     0.485000000
H     4.832000000     3.510000000     1.884000000
O     8.133000000    -1.173000000    -2.391000000
H     7.619000000    -0.491000000    -1.959000000
H     8.403000000    -1.755000000    -1.681000000
O     5.902000000     2.231000000    -4.017000000
H     5.804000000     3.174000000    -4.152000000
H     5.360000000     2.041000000    -3.251000000
O     3.223000000     8.003000000    -3.792000000
H     3.426000000     7.110000000    -4.073000000
H     3.748000000     8.131000000    -3.002000000
O     2.721000000     5.681000000    -0.025000000
H     3.289000000     5.166000000     0.548000000
H     2.612000000     5.137000000    -0.805000000
O     8.843000000     4.727000000    -2.217000000
H     7.916000000     4.526000000    -2.085000000
H     9.060000000     5.332000000    -1.508000000
O     8.332000000     2.106000000     2.753000000
H     7.543000000     2.297000000     2.244000000
H     8.491000000     2.905000000     3.255000000
O     1.647000000     8.391000000    -0.267000000
H     1.553000000     7.648000000     0.330000000
H     2.248000000     8.079000000    -0.944000000
O     4.202000000     2.074000000    -6.166000000
H     4.203000000     1.175000000    -6.493000000
H     4.851000000     2.074000000    -5.463000000
O     3.412000000     4.827000000    -3.896000000
H     2.955000000     4.350000000    -4.588000000
H     3.337000000     4.263000000    -3.126000000
O     7.683000000     0.332000000    -4.712000000
H     7.066000000     1.017000000    -4.454000000
H     8.137000000     0.101000000    -3.901000000
O    10.064000000     1.645000000    -0.761000000
H     9.403000000     2.210000000    -1.161000000
H     9.579000000     1.124000000    -0.121000000
O     6.137000000     4.487000000    -1.404000000
H     5.251000000     4.149000000    -1.530000000
H     6.052000000     5.433000000    -1.522000000
O     6.464000000     0.470000000    -1.106000000
H     6.607000000     0.977000000    -0.307000000
H     5.842000000     0.991000000    -1.613000000
O     4.597000000     6.396000000     2.854000000
H     4.740000000     5.801000000     2.118000000
H     4.978000000     5.943000000     3.606000000
