218
-1468.72198
C     1.115000000    -4.296000000    -3.592000000
H     0.086000000    -4.537000000    -3.845000000
C     1.473000000    -4.162000000    -2.226000000
C     2.798000000    -3.939000000    -1.840000000
H     3.096000000    -3.875000000    -0.797000000
C     0.400000000    -4.180000000    -1.143000000
O    -0.802000000    -4.760000000    -1.544000000
H     0.131000000    -3.144000000    -0.892000000
O     0.858000000    -4.830000000     0.038000000
C     0.572000000    -4.233000000     1.235000000
C     1.628000000    -3.625000000     1.888000000
H     2.630000000    -3.573000000     1.469000000
C     1.379000000    -2.964000000     3.106000000
O     2.356000000    -2.137000000     3.498000000
C     0.168000000    -3.069000000     3.763000000
C    -0.045000000    -2.375000000     5.083000000
H    -0.872000000    -2.889000000     5.577000000
C    -0.419000000    -0.896000000     4.920000000
C    -1.778000000    -0.643000000     4.634000000
H    -2.502000000    -1.451000000     4.577000000
H     0.818000000    -2.550000000     5.729000000
C    -0.902000000    -3.775000000     3.108000000
H    -1.891000000    -3.668000000     3.547000000
C    -0.688000000    -4.352000000     1.849000000
C    -1.803000000    -5.197000000     1.193000000
H    -2.563000000    -5.389000000     1.953000000
H    -1.316000000    -6.091000000     0.797000000
C    -2.531000000    -4.293000000     0.155000000
C    -3.652000000    -3.598000000     0.564000000
H    -4.209000000    -3.712000000     1.491000000
C    -1.998000000    -4.124000000    -1.104000000
C    -2.553000000    -3.260000000    -2.024000000
H    -2.236000000    -3.274000000    -3.064000000
C    -3.678000000    -2.516000000    -1.598000000
O    -4.171000000    -1.661000000    -2.523000000
C    -3.661000000    -0.297000000    -2.374000000
C    -3.336000000     0.473000000    -3.656000000
C    -3.452000000     1.839000000    -3.782000000
H    -3.937000000     2.400000000    -2.988000000
C    -2.533000000    -0.209000000    -4.557000000
H    -2.331000000    -1.276000000    -4.511000000
O    -4.682000000     0.457000000    -1.637000000
H    -2.758000000    -0.240000000    -1.748000000
C    -4.249000000    -2.686000000    -0.322000000
C    -5.387000000    -1.832000000     0.107000000
H    -5.923000000    -2.305000000     0.932000000
H    -6.150000000    -1.636000000    -0.649000000
C    -4.824000000    -0.505000000     0.596000000
C    -4.542000000    -0.343000000     1.969000000
H    -4.791000000    -1.145000000     2.660000000
C    -4.573000000     0.575000000    -0.259000000
C    -3.957000000     1.718000000     0.220000000
H    -3.685000000     2.444000000    -0.542000000
C    -3.626000000     1.862000000     1.561000000
O    -3.088000000     3.108000000     1.855000000
C    -1.726000000     3.116000000     2.364000000
C    -0.922000000     4.293000000     1.772000000
C    -1.287000000     4.707000000     0.497000000
H    -2.037000000     4.252000000    -0.145000000
C     0.175000000     4.840000000     2.403000000
H     0.501000000     4.555000000     3.400000000
O    -1.572000000     2.953000000     3.852000000
H    -1.237000000     2.231000000     1.931000000
C    -3.938000000     0.823000000     2.443000000
C    -3.706000000     1.006000000     3.977000000
H    -4.266000000     0.212000000     4.476000000
H    -4.148000000     1.945000000     4.317000000
C    -2.255000000     0.693000000     4.416000000
C    -1.252000000     1.707000000     4.383000000
C     0.066000000     1.353000000     4.555000000
H     0.804000000     2.121000000     4.339000000
C     0.530000000     0.095000000     4.940000000
O     1.795000000    -0.184000000     4.629000000
C     2.185000000    -0.699000000     3.343000000
H     1.362000000    -0.452000000     2.656000000
C     3.435000000     0.015000000     2.806000000
C     4.361000000    -0.571000000     1.993000000
H     4.012000000    -1.466000000     1.485000000
C     3.774000000     1.326000000     3.247000000
H     3.035000000     1.801000000     3.889000000
C     4.963000000     1.989000000     2.910000000
O     5.314000000     3.250000000     3.323000000
C     5.922000000     1.235000000     2.158000000
H     6.876000000     1.652000000     1.846000000
C     5.608000000    -0.057000000     1.743000000
O     6.606000000    -0.644000000     0.918000000
C     6.417000000    -1.955000000     0.433000000
C     6.021000000    -2.161000000    -0.864000000
H     5.884000000    -1.276000000    -1.479000000
C     6.474000000    -2.941000000     1.363000000
H     6.753000000    -2.914000000     2.413000000
C     6.116000000    -4.244000000     0.903000000
H     6.058000000    -5.039000000     1.643000000
C     5.636000000    -4.464000000    -0.365000000
H     5.430000000    -5.443000000    -0.790000000
C     5.606000000    -3.427000000    -1.305000000
O     5.186000000    -3.575000000    -2.591000000
C     3.820000000    -3.811000000    -2.807000000
C     3.466000000    -3.881000000    -4.149000000
H     4.172000000    -3.768000000    -4.968000000
C     2.100000000    -4.086000000    -4.518000000
O     1.712000000    -4.007000000    -5.879000000
C     0.477000000    -3.475000000    -6.226000000
C     0.249000000    -2.082000000    -6.248000000
H     1.023000000    -1.347000000    -6.046000000
C    -0.551000000    -4.375000000    -6.624000000
H    -0.437000000    -5.455000000    -6.593000000
C    -1.805000000    -3.863000000    -6.989000000
H    -2.637000000    -4.459000000    -7.355000000
C    -2.052000000    -2.503000000    -6.980000000
H    -3.050000000    -2.172000000    -7.257000000
C    -0.995000000    -1.614000000    -6.610000000
O    -1.275000000    -0.245000000    -6.636000000
C    -1.970000000     0.432000000    -5.681000000
C    -2.183000000     1.805000000    -5.861000000
H    -1.666000000     2.390000000    -6.618000000
C    -2.879000000     2.518000000    -4.874000000
O    -2.828000000     3.843000000    -5.024000000
C    -2.755000000     4.709000000    -3.973000000
C    -1.648000000     4.849000000    -3.210000000
H    -0.770000000     4.283000000    -3.512000000
C    -3.893000000     5.470000000    -3.736000000
H    -4.790000000     5.261000000    -4.312000000
C    -3.922000000     6.410000000    -2.686000000
H    -4.813000000     6.986000000    -2.452000000
C    -2.810000000     6.635000000    -1.979000000
H    -2.664000000     7.285000000    -1.120000000
C    -1.680000000     5.810000000    -2.234000000
O    -0.589000000     6.027000000    -1.485000000
C    -0.541000000     5.727000000    -0.128000000
C     0.469000000     6.391000000     0.577000000
H     0.947000000     7.199000000     0.029000000
C     0.866000000     5.917000000     1.832000000
O     1.974000000     6.425000000     2.351000000
C     2.754000000     5.829000000     3.238000000
C     2.940000000     6.459000000     4.502000000
H     2.404000000     7.362000000     4.785000000
C     3.928000000     5.933000000     5.336000000
H     4.076000000     6.377000000     6.317000000
C     4.750000000     4.898000000     4.888000000
H     5.557000000     4.517000000     5.508000000
C     4.457000000     4.220000000     3.714000000
C     3.507000000     4.751000000     2.825000000
H     3.562000000     4.357000000     1.813000000
C     0.925000000     0.994000000    -2.602000000
H     0.586000000     1.738000000    -3.319000000
C    -0.005000000     0.489000000    -1.693000000
H    -1.046000000     0.791000000    -1.774000000
C     0.318000000    -0.405000000    -0.682000000
C    -0.698000000    -0.886000000     0.278000000
H    -0.175000000    -1.098000000     1.213000000
H    -1.530000000    -0.196000000     0.436000000
H    -1.037000000    -1.900000000     0.057000000
C     1.574000000    -0.911000000    -0.554000000
H     1.829000000    -1.512000000     0.315000000
C     2.499000000    -0.535000000    -1.505000000
H     3.554000000    -0.773000000    -1.398000000
C     2.207000000     0.455000000    -2.515000000
C     3.250000000     1.019000000    -3.353000000
O     4.333000000     0.505000000    -3.231000000
O     2.986000000     1.875000000    -4.179000000
O     0.283000000     0.740000000    -8.634000000
H     0.698000000    -0.101000000    -8.827000000
H    -0.240000000     0.574000000    -7.850000000
O     4.301000000    -0.836000000    -5.666000000
H     4.533000000    -0.561000000    -4.779000000
H     3.631000000    -0.212000000    -5.943000000
O     1.994000000     2.993000000    -6.634000000
H     2.195000000     2.257000000    -6.056000000
H     2.603000000     2.896000000    -7.366000000
O     8.316000000     5.181000000    -4.272000000
H     8.726000000     5.121000000    -3.409000000
H     7.416000000     5.453000000    -4.092000000
O     5.417000000     5.940000000    -4.013000000
H     5.462000000     5.620000000    -3.111000000
H     5.347000000     6.890000000    -3.927000000
O     2.205000000     4.352000000    -3.246000000
H     2.504000000     3.443000000    -3.287000000
H     1.975000000     4.487000000    -2.326000000
O     4.969000000     5.219000000    -6.628000000
H     5.174000000     5.486000000    -5.732000000
H     4.013000000     5.235000000    -6.670000000
O     5.762000000     2.846000000    -3.776000000
H     5.759000000     3.686000000    -4.236000000
H     5.031000000     2.361000000    -4.157000000
O     7.805000000     0.154000000    -8.295000000
H     7.139000000     0.231000000    -8.978000000
H     7.421000000    -0.443000000    -7.653000000
O     4.843000000     2.653000000    -1.021000000
H     5.063000000     2.651000000    -1.953000000
H     4.950000000     1.742000000    -0.748000000
O     8.360000000     2.171000000    -4.791000000
H     7.683000000     2.795000000    -4.530000000
H     8.568000000     2.407000000    -5.695000000
O     3.668000000     2.735000000    -8.761000000
H     4.433000000     3.108000000    -9.200000000
H     3.732000000     1.795000000    -8.927000000
O     6.371000000    -1.911000000    -7.099000000
H     5.549000000    -1.601000000    -6.717000000
H     6.102000000    -2.557000000    -7.752000000
O     6.212000000     5.064000000    -1.328000000
H     5.878000000     4.167000000    -1.332000000
H     7.164000000     4.965000000    -1.333000000
O     0.931000000     5.096000000    -5.415000000
H     1.404000000     4.877000000    -4.612000000
H     1.217000000     4.436000000    -6.048000000
O     4.137000000     6.516000000    -0.053000000
H     3.474000000     5.856000000     0.151000000
H     4.677000000     6.110000000    -0.732000000
O     7.143000000    -0.271000000    -3.624000000
H     6.307000000     0.125000000    -3.379000000
H     7.661000000     0.457000000    -3.969000000
O     8.215000000    -2.374000000    -5.104000000
H     7.986000000    -1.662000000    -4.508000000
H     7.644000000    -2.247000000    -5.861000000
O     2.358000000     4.192000000    -0.427000000
H     1.618000000     3.588000000    -0.363000000
H     3.130000000     3.636000000    -0.327000000
