218
-1486.99113
C     0.590000000    -3.676000000    -4.292000000
H    -0.480000000    -3.724000000    -4.475000000
C     1.157000000    -3.902000000    -3.054000000
C     2.522000000    -3.775000000    -2.927000000
H     2.955000000    -4.002000000    -1.957000000
C     0.312000000    -4.091000000    -1.797000000
O    -1.008000000    -4.606000000    -2.071000000
H     0.101000000    -3.185000000    -1.210000000
O     0.942000000    -5.021000000    -0.909000000
C     0.811000000    -4.784000000     0.449000000
C     1.895000000    -4.139000000     1.042000000
H     2.744000000    -3.880000000     0.415000000
C     1.788000000    -3.579000000     2.337000000
O     2.772000000    -2.727000000     2.768000000
C     0.676000000    -3.812000000     3.125000000
C     0.703000000    -3.135000000     4.542000000
H     0.027000000    -3.706000000     5.182000000
C     0.202000000    -1.706000000     4.618000000
C    -1.185000000    -1.486000000     4.825000000
H    -1.880000000    -2.321000000     4.850000000
H     1.655000000    -3.187000000     5.074000000
C    -0.386000000    -4.573000000     2.586000000
H    -1.251000000    -4.826000000     3.193000000
C    -0.404000000    -4.952000000     1.230000000
C    -1.686000000    -5.604000000     0.709000000
H    -2.206000000    -6.104000000     1.529000000
H    -1.409000000    -6.421000000     0.040000000
C    -2.477000000    -4.511000000    -0.017000000
C    -3.560000000    -3.834000000     0.600000000
H    -3.679000000    -3.983000000     1.670000000
C    -2.051000000    -4.046000000    -1.339000000
C    -2.835000000    -3.071000000    -1.978000000
H    -2.481000000    -2.657000000    -2.919000000
C    -3.862000000    -2.359000000    -1.308000000
O    -4.374000000    -1.199000000    -1.971000000
C    -3.934000000     0.110000000    -1.576000000
C    -3.665000000     1.025000000    -2.783000000
C    -4.172000000     2.310000000    -2.750000000
H    -4.901000000     2.671000000    -2.030000000
C    -2.699000000     0.680000000    -3.738000000
H    -2.281000000    -0.312000000    -3.588000000
O    -4.940000000     0.670000000    -0.715000000
H    -2.985000000     0.073000000    -1.021000000
C    -4.269000000    -2.785000000    -0.055000000
C    -5.299000000    -1.921000000     0.662000000
H    -5.684000000    -2.522000000     1.488000000
H    -6.127000000    -1.714000000    -0.019000000
C    -4.640000000    -0.652000000     1.249000000
C    -4.175000000    -0.776000000     2.581000000
H    -4.272000000    -1.769000000     3.014000000
C    -4.664000000     0.616000000     0.626000000
C    -4.190000000     1.660000000     1.360000000
H    -4.211000000     2.641000000     0.892000000
C    -3.543000000     1.516000000     2.621000000
O    -2.889000000     2.630000000     3.107000000
C    -1.469000000     2.560000000     3.178000000
C    -0.828000000     3.872000000     2.648000000
C    -1.435000000     4.527000000     1.501000000
H    -2.341000000     4.134000000     1.046000000
C     0.279000000     4.433000000     3.296000000
H     0.748000000     3.896000000     4.118000000
O    -1.104000000     2.186000000     4.537000000
H    -1.129000000     1.685000000     2.605000000
C    -3.597000000     0.267000000     3.255000000
C    -3.087000000     0.020000000     4.629000000
H    -3.594000000    -0.822000000     5.105000000
H    -3.409000000     0.928000000     5.143000000
C    -1.646000000    -0.182000000     4.721000000
C    -0.715000000     0.906000000     4.668000000
C     0.607000000     0.627000000     4.518000000
H     1.392000000     1.346000000     4.296000000
C     1.100000000    -0.642000000     4.558000000
O     2.386000000    -0.814000000     4.085000000
C     2.626000000    -1.279000000     2.746000000
H     1.760000000    -1.017000000     2.120000000
C     3.797000000    -0.532000000     2.229000000
C     4.558000000    -1.104000000     1.202000000
H     4.301000000    -2.040000000     0.714000000
C     4.068000000     0.774000000     2.535000000
H     3.402000000     1.202000000     3.280000000
C     5.035000000     1.492000000     1.824000000
O     5.354000000     2.745000000     2.258000000
C     5.840000000     0.903000000     0.896000000
H     6.635000000     1.508000000     0.468000000
C     5.619000000    -0.407000000     0.547000000
O     6.537000000    -0.988000000    -0.265000000
C     6.385000000    -2.175000000    -0.879000000
C     5.615000000    -2.233000000    -2.027000000
H     5.250000000    -1.299000000    -2.447000000
C     7.046000000    -3.243000000    -0.353000000
H     7.705000000    -3.088000000     0.497000000
C     6.845000000    -4.464000000    -0.975000000
H     7.267000000    -5.385000000    -0.580000000
C     6.096000000    -4.620000000    -2.128000000
H     6.033000000    -5.608000000    -2.578000000
C     5.432000000    -3.471000000    -2.628000000
O     4.677000000    -3.537000000    -3.822000000
C     3.311000000    -3.353000000    -3.937000000
C     2.732000000    -3.148000000    -5.232000000
H     3.325000000    -2.999000000    -6.131000000
C     1.358000000    -3.392000000    -5.400000000
O     0.772000000    -2.962000000    -6.596000000
C    -0.169000000    -1.929000000    -6.800000000
C    -0.292000000    -0.790000000    -5.957000000
H     0.403000000    -0.698000000    -5.126000000
C    -1.032000000    -2.114000000    -7.853000000
H    -0.939000000    -2.998000000    -8.478000000
C    -1.903000000    -1.093000000    -8.171000000
H    -2.560000000    -1.240000000    -9.024000000
C    -1.920000000     0.126000000    -7.380000000
H    -2.558000000     0.952000000    -7.685000000
C    -1.107000000     0.261000000    -6.272000000
O    -1.217000000     1.391000000    -5.509000000
C    -2.283000000     1.618000000    -4.700000000
C    -2.710000000     2.918000000    -4.596000000
H    -2.385000000     3.575000000    -5.399000000
C    -3.651000000     3.259000000    -3.686000000
O    -4.144000000     4.520000000    -3.617000000
C    -3.994000000     5.319000000    -2.452000000
C    -2.757000000     5.305000000    -1.782000000
H    -1.889000000     4.697000000    -2.024000000
C    -4.956000000     6.242000000    -2.127000000
H    -5.929000000     6.267000000    -2.611000000
C    -4.736000000     7.203000000    -1.124000000
H    -5.498000000     7.927000000    -0.845000000
C    -3.497000000     7.207000000    -0.504000000
H    -3.263000000     7.894000000     0.305000000
C    -2.481000000     6.254000000    -0.839000000
O    -1.262000000     6.387000000    -0.121000000
C    -0.839000000     5.709000000     1.048000000
C     0.359000000     6.195000000     1.615000000
H     0.887000000     7.040000000     1.180000000
C     0.887000000     5.558000000     2.788000000
O     2.058000000     6.087000000     3.329000000
C     3.077000000     5.221000000     3.711000000
C     3.615000000     5.284000000     5.027000000
H     3.308000000     6.039000000     5.746000000
C     4.656000000     4.418000000     5.406000000
H     5.038000000     4.433000000     6.423000000
C     5.244000000     3.603000000     4.493000000
H     6.063000000     2.914000000     4.685000000
C     4.721000000     3.518000000     3.223000000
C     3.649000000     4.363000000     2.788000000
H     3.342000000     4.408000000     1.746000000
C    -0.095000000     1.780000000    -1.923000000
H    -0.517000000     2.779000000    -1.991000000
C    -0.511000000     0.974000000    -0.872000000
H    -1.327000000     1.265000000    -0.216000000
C     0.043000000    -0.281000000    -0.688000000
C    -0.552000000    -1.233000000     0.394000000
H     0.029000000    -2.158000000     0.383000000
H    -0.480000000    -0.666000000     1.324000000
H    -1.609000000    -1.466000000     0.251000000
C     1.019000000    -0.726000000    -1.517000000
H     1.539000000    -1.679000000    -1.448000000
C     1.538000000     0.136000000    -2.542000000
H     2.263000000    -0.245000000    -3.257000000
C     0.941000000     1.388000000    -2.773000000
C     1.513000000     2.418000000    -3.745000000
O     2.555000000     2.163000000    -4.329000000
O     1.093000000     3.593000000    -3.710000000
O     1.203000000     2.567000000    -7.338000000
H     1.148000000     3.437000000    -6.944000000
H     1.239000000     2.732000000    -8.280000000
O     1.808000000     4.920000000    -5.862000000
H     2.667000000     4.498000000    -5.883000000
H     1.436000000     4.666000000    -5.018000000
O     6.528000000     4.020000000    -2.702000000
H     6.846000000     3.117000000    -2.686000000
H     5.719000000     3.979000000    -3.212000000
O     2.770000000     5.106000000    -2.296000000
H     2.843000000     4.541000000    -1.527000000
H     2.123000000     4.671000000    -2.852000000
O     2.915000000     7.295000000    -6.275000000
H     2.689000000     6.455000000    -5.875000000
H     3.687000000     7.590000000    -5.792000000
O     4.379000000     1.908000000    -2.387000000
H     3.829000000     2.180000000    -3.122000000
H     5.088000000     1.407000000    -2.791000000
O     1.821000000     4.114000000    -9.637000000
H     2.722000000     3.870000000    -9.426000000
H     1.774000000     5.050000000    -9.443000000
O    -0.907000000     8.003000000    -4.117000000
H    -1.609000000     7.601000000    -4.628000000
H    -0.399000000     7.264000000    -3.785000000
O     2.986000000     2.905000000    -0.396000000
H     3.734000000     2.531000000    -0.862000000
H     2.439000000     2.151000000    -0.176000000
O     7.272000000     1.248000000    -3.288000000
H     6.899000000     0.688000000    -3.969000000
H     7.978000000     1.722000000    -3.727000000
O     6.084000000     3.048000000    -6.707000000
H     5.716000000     3.329000000    -5.869000000
H     6.478000000     2.195000000    -6.522000000
O     2.982000000     0.887000000    -6.656000000
H     2.374000000     1.411000000    -7.178000000
H     2.620000000     0.912000000    -5.770000000
O     0.210000000     5.869000000    -2.942000000
H     0.951000000     5.946000000    -2.341000000
H     0.242000000     4.963000000    -3.247000000
O     3.886000000    -0.422000000    -8.941000000
H     3.592000000    -0.055000000    -8.107000000
H     4.159000000     0.339000000    -9.454000000
O     5.661000000     0.204000000    -5.775000000
H     4.734000000     0.239000000    -6.013000000
H     6.009000000    -0.534000000    -6.274000000
O     4.310000000     4.097000000    -4.458000000
H     3.878000000     3.255000000    -4.598000000
H     3.824000000     4.499000000    -3.738000000
O    -2.686000000     4.943000000    -7.897000000
H    -2.149000000     5.506000000    -8.455000000
H    -2.598000000     5.319000000    -7.021000000
O     4.549000000     3.626000000    -8.879000000
H     5.108000000     3.253000000    -8.198000000
H     5.017000000     4.408000000    -9.171000000
O     2.598000000     7.807000000    -0.741000000
H     3.218000000     7.142000000    -1.039000000
H     2.271000000     8.207000000    -1.547000000
