218
-1443.43226
C     1.171000000    -3.276000000    -4.147000000
H     0.167000000    -2.926000000    -4.372000000
C     1.438000000    -3.984000000    -2.959000000
C     2.787000000    -4.237000000    -2.679000000
H     3.088000000    -4.639000000    -1.715000000
C     0.373000000    -4.090000000    -1.862000000
O    -0.947000000    -4.479000000    -2.344000000
H     0.209000000    -3.128000000    -1.354000000
O     0.819000000    -5.147000000    -0.874000000
C     0.609000000    -4.813000000     0.449000000
C     1.643000000    -4.123000000     1.133000000
H     2.635000000    -3.955000000     0.721000000
C     1.375000000    -3.602000000     2.411000000
O     2.385000000    -2.850000000     3.036000000
C     0.090000000    -3.725000000     2.975000000
C    -0.144000000    -3.168000000     4.384000000
H    -0.863000000    -3.797000000     4.911000000
C    -0.561000000    -1.758000000     4.501000000
C    -1.893000000    -1.333000000     4.391000000
H    -2.625000000    -2.119000000     4.220000000
H     0.708000000    -3.394000000     5.027000000
C    -0.899000000    -4.386000000     2.358000000
H    -1.924000000    -4.340000000     2.719000000
C    -0.645000000    -4.896000000     1.065000000
C    -1.840000000    -5.362000000     0.207000000
H    -2.639000000    -5.841000000     0.777000000
H    -1.481000000    -6.164000000    -0.441000000
C    -2.452000000    -4.224000000    -0.524000000
C    -3.506000000    -3.509000000     0.025000000
H    -3.923000000    -3.825000000     0.978000000
C    -2.017000000    -3.858000000    -1.807000000
C    -2.639000000    -2.831000000    -2.534000000
H    -2.299000000    -2.606000000    -3.541000000
C    -3.598000000    -2.020000000    -1.924000000
O    -4.125000000    -0.923000000    -2.554000000
C    -3.691000000     0.327000000    -2.063000000
C    -3.114000000     1.370000000    -3.007000000
C    -3.468000000     2.723000000    -3.003000000
H    -4.209000000     3.094000000    -2.299000000
C    -2.159000000     0.971000000    -3.851000000
H    -1.864000000    -0.071000000    -3.752000000
O    -4.816000000     0.908000000    -1.303000000
H    -2.905000000     0.038000000    -1.349000000
C    -4.080000000    -2.442000000    -0.680000000
C    -5.226000000    -1.674000000    -0.020000000
H    -5.683000000    -2.355000000     0.701000000
H    -5.935000000    -1.458000000    -0.821000000
C    -4.845000000    -0.426000000     0.755000000
C    -4.515000000    -0.513000000     2.074000000
H    -4.824000000    -1.406000000     2.611000000
C    -4.632000000     0.817000000     0.084000000
C    -4.233000000     1.966000000     0.783000000
H    -4.342000000     2.876000000     0.198000000
C    -3.849000000     1.842000000     2.101000000
O    -3.198000000     2.841000000     2.752000000
C    -1.725000000     2.639000000     2.774000000
C    -1.020000000     3.844000000     2.153000000
C    -1.720000000     4.905000000     1.456000000
H    -2.769000000     4.967000000     1.176000000
C     0.312000000     3.936000000     2.335000000
H     0.867000000     3.064000000     2.673000000
O    -1.276000000     2.272000000     4.129000000
H    -1.508000000     1.734000000     2.189000000
C    -4.038000000     0.608000000     2.757000000
C    -3.588000000     0.475000000     4.196000000
H    -4.269000000    -0.191000000     4.730000000
H    -3.789000000     1.443000000     4.659000000
C    -2.167000000     0.027000000     4.291000000
C    -1.141000000     0.959000000     4.421000000
C     0.151000000     0.552000000     4.473000000
H     0.913000000     1.327000000     4.494000000
C     0.448000000    -0.799000000     4.584000000
O     1.847000000    -1.071000000     4.473000000
C     2.327000000    -1.421000000     3.197000000
H     1.525000000    -1.041000000     2.547000000
C     3.675000000    -0.754000000     2.903000000
C     4.377000000    -1.270000000     1.759000000
H     3.991000000    -2.135000000     1.226000000
C     4.178000000     0.317000000     3.608000000
H     3.599000000     0.665000000     4.460000000
C     5.312000000     0.986000000     3.186000000
O     5.610000000     2.135000000     3.843000000
C     5.933000000     0.522000000     1.999000000
H     6.842000000     1.028000000     1.684000000
C     5.512000000    -0.631000000     1.353000000
O     6.122000000    -1.139000000     0.212000000
C     6.114000000    -2.468000000    -0.194000000
C     5.579000000    -2.757000000    -1.480000000
H     5.051000000    -1.986000000    -2.035000000
C     6.815000000    -3.399000000     0.531000000
H     7.289000000    -3.105000000     1.463000000
C     6.946000000    -4.645000000    -0.023000000
H     7.409000000    -5.475000000     0.505000000
C     6.351000000    -4.976000000    -1.250000000
H     6.569000000    -5.973000000    -1.626000000
C     5.689000000    -4.010000000    -2.014000000
O     5.161000000    -4.319000000    -3.272000000
C     3.844000000    -4.032000000    -3.531000000
C     3.525000000    -3.469000000    -4.765000000
H     4.346000000    -3.149000000    -5.402000000
C     2.226000000    -3.112000000    -5.099000000
O     1.866000000    -2.528000000    -6.345000000
C     0.762000000    -1.699000000    -6.594000000
C     0.713000000    -0.537000000    -5.923000000
H     1.530000000    -0.263000000    -5.260000000
C    -0.269000000    -2.129000000    -7.434000000
H    -0.204000000    -3.023000000    -8.048000000
C    -1.384000000    -1.304000000    -7.619000000
H    -2.170000000    -1.523000000    -8.338000000
C    -1.505000000    -0.192000000    -6.809000000
H    -2.368000000     0.466000000    -6.848000000
C    -0.468000000     0.230000000    -6.003000000
O    -0.538000000     1.476000000    -5.506000000
C    -1.507000000     1.915000000    -4.710000000
C    -1.779000000     3.273000000    -4.719000000
H    -1.184000000     3.922000000    -5.357000000
C    -2.788000000     3.663000000    -3.826000000
O    -3.137000000     4.968000000    -3.812000000
C    -3.303000000     5.757000000    -2.688000000
C    -2.358000000     5.959000000    -1.704000000
H    -1.423000000     5.407000000    -1.763000000
C    -4.562000000     6.350000000    -2.626000000
H    -5.302000000     6.126000000    -3.390000000
C    -4.819000000     7.228000000    -1.613000000
H    -5.850000000     7.552000000    -1.502000000
C    -3.821000000     7.410000000    -0.636000000
H    -3.902000000     8.120000000     0.183000000
C    -2.614000000     6.843000000    -0.705000000
O    -1.592000000     7.038000000     0.191000000
C    -0.984000000     5.935000000     0.899000000
C     0.410000000     6.029000000     1.209000000
H     0.989000000     6.804000000     0.713000000
C     1.057000000     5.007000000     1.939000000
O     2.409000000     5.159000000     2.206000000
C     3.044000000     4.636000000     3.291000000
C     2.557000000     4.693000000     4.649000000
H     1.786000000     5.426000000     4.872000000
C     3.229000000     4.076000000     5.683000000
H     3.030000000     4.257000000     6.736000000
C     4.182000000     3.167000000     5.401000000
H     4.720000000     2.733000000     6.239000000
C     4.628000000     3.052000000     4.076000000
C     4.160000000     3.828000000     3.076000000
H     4.357000000     3.495000000     2.060000000
C     0.225000000     2.347000000    -1.655000000
H    -0.122000000     3.338000000    -1.937000000
C    -0.535000000     1.530000000    -0.877000000
H    -1.385000000     1.977000000    -0.367000000
C    -0.108000000     0.258000000    -0.568000000
C    -0.892000000    -0.541000000     0.421000000
H    -1.183000000    -1.511000000     0.012000000
H    -0.312000000    -0.617000000     1.343000000
H    -1.741000000     0.084000000     0.706000000
C     1.070000000    -0.257000000    -1.031000000
H     1.426000000    -1.233000000    -0.711000000
C     1.830000000     0.489000000    -1.915000000
H     2.593000000     0.040000000    -2.546000000
C     1.431000000     1.815000000    -2.223000000
C     2.297000000     2.557000000    -3.195000000
O     3.462000000     2.239000000    -3.357000000
O     1.997000000     3.712000000    -3.365000000
O     1.271000000     4.427000000    -5.726000000
H     1.235000000     5.356000000    -5.502000000
H     1.558000000     3.997000000    -4.920000000
O     6.236000000     3.598000000    -2.937000000
H     5.916000000     2.698000000    -2.868000000
H     5.499000000     4.086000000    -3.304000000
O     5.880000000     7.135000000    -2.429000000
H     6.511000000     6.416000000    -2.451000000
H     6.418000000     7.927000000    -2.460000000
O     2.920000000     5.028000000    -0.921000000
H     3.404000000     4.439000000    -0.343000000
H     2.788000000     4.523000000    -1.723000000
O     5.838000000     1.077000000    -3.043000000
H     4.958000000     1.331000000    -3.322000000
H     6.140000000     0.474000000    -3.723000000
O     0.472000000     4.370000000    -8.579000000
H     0.399000000     4.539000000    -7.640000000
H     1.388000000     4.559000000    -8.786000000
O    -0.269000000     7.958000000    -5.007000000
H    -1.044000000     8.430000000    -4.704000000
H    -0.043000000     7.377000000    -4.280000000
O     3.619000000     1.900000000     0.200000000
H     3.140000000     1.488000000     0.919000000
H     3.000000000     1.899000000    -0.531000000
O     3.497000000     7.292000000    -3.710000000
H     4.358000000     7.139000000    -3.322000000
H     3.275000000     8.188000000    -3.456000000
O     7.067000000     4.457000000    -6.504000000
H     6.576000000     4.736000000    -5.731000000
H     6.540000000     3.751000000    -6.879000000
O     3.200000000     2.196000000    -6.401000000
H     2.458000000     2.764000000    -6.608000000
H     3.129000000     2.043000000    -5.459000000
O     0.982000000     6.370000000    -3.180000000
H     1.819000000     6.776000000    -3.406000000
H     1.220000000     5.506000000    -2.841000000
O     3.192000000     0.892000000    -9.075000000
H     3.327000000     1.298000000    -8.219000000
H     3.670000000     1.454000000    -9.685000000
O     0.762000000     8.367000000    -1.413000000
H     0.044000000     8.838000000    -1.836000000
H     0.870000000     7.574000000    -1.938000000
O     6.044000000     2.216000000    -7.381000000
H     5.405000000     1.655000000    -6.941000000
H     6.575000000     1.613000000    -7.901000000
O     4.649000000     4.792000000    -4.796000000
H     4.292000000     3.984000000    -4.427000000
H     4.077000000     5.482000000    -4.459000000
O     3.417000000     4.799000000    -8.576000000
H     3.907000000     4.653000000    -7.767000000
H     3.819000000     5.577000000    -8.962000000
O     5.737000000     3.576000000    -0.322000000
H     5.165000000     2.809000000    -0.332000000
H     6.001000000     3.690000000    -1.235000000
O     3.437000000     7.734000000     0.193000000
H     3.187000000     6.824000000     0.030000000
H     3.162000000     8.202000000    -0.596000000
