218
-1465.25100
C     1.055000000    -4.338000000    -3.499000000
H     0.040000000    -4.054000000    -3.763000000
C     1.398000000    -4.600000000    -2.184000000
C     2.730000000    -4.765000000    -1.801000000
H     2.983000000    -4.884000000    -0.750000000
C     0.285000000    -4.388000000    -1.125000000
O    -1.024000000    -4.856000000    -1.559000000
H     0.214000000    -3.338000000    -0.806000000
O     0.618000000    -5.185000000     0.067000000
C     0.302000000    -4.558000000     1.274000000
C     1.348000000    -3.778000000     1.898000000
H     2.333000000    -3.690000000     1.447000000
C     1.053000000    -3.047000000     3.031000000
O     2.021000000    -2.271000000     3.609000000
C    -0.263000000    -3.079000000     3.558000000
C    -0.484000000    -2.474000000     4.917000000
H    -1.307000000    -2.992000000     5.414000000
C    -0.797000000    -0.938000000     4.897000000
C    -2.142000000    -0.533000000     4.743000000
H    -2.831000000    -1.357000000     4.574000000
H     0.391000000    -2.616000000     5.556000000
C    -1.295000000    -3.754000000     2.932000000
H    -2.230000000    -3.819000000     3.483000000
C    -1.020000000    -4.545000000     1.772000000
C    -2.141000000    -5.223000000     1.068000000
H    -2.944000000    -5.606000000     1.701000000
H    -1.725000000    -6.005000000     0.429000000
C    -2.756000000    -4.212000000     0.037000000
C    -3.692000000    -3.295000000     0.436000000
H    -4.113000000    -3.376000000     1.435000000
C    -2.115000000    -4.113000000    -1.238000000
C    -2.426000000    -2.997000000    -1.992000000
H    -1.912000000    -2.758000000    -2.919000000
C    -3.518000000    -2.203000000    -1.651000000
O    -3.907000000    -1.187000000    -2.467000000
C    -3.430000000     0.166000000    -2.143000000
C    -2.742000000     0.865000000    -3.331000000
C    -3.055000000     2.186000000    -3.618000000
H    -3.798000000     2.708000000    -3.021000000
C    -1.809000000     0.155000000    -4.077000000
H    -1.442000000    -0.800000000    -3.710000000
O    -4.425000000     0.910000000    -1.623000000
H    -2.652000000     0.021000000    -1.379000000
C    -4.175000000    -2.310000000    -0.428000000
C    -5.249000000    -1.417000000     0.016000000
H    -5.812000000    -1.881000000     0.829000000
H    -5.981000000    -1.228000000    -0.772000000
C    -4.729000000    -0.101000000     0.617000000
C    -4.642000000     0.012000000     2.000000000
H    -4.786000000    -0.801000000     2.707000000
C    -4.501000000     1.000000000    -0.238000000
C    -4.072000000     2.231000000     0.344000000
H    -4.035000000     3.051000000    -0.368000000
C    -3.791000000     2.253000000     1.713000000
O    -3.178000000     3.418000000     2.247000000
C    -1.730000000     3.133000000     2.419000000
C    -1.004000000     4.405000000     1.864000000
C    -1.247000000     4.908000000     0.555000000
H    -2.051000000     4.434000000    -0.001000000
C     0.167000000     4.819000000     2.486000000
H     0.426000000     4.406000000     3.458000000
O    -1.535000000     2.963000000     3.854000000
H    -1.450000000     2.203000000     1.902000000
C    -4.047000000     1.183000000     2.528000000
C    -3.903000000     1.282000000     4.040000000
H    -4.691000000     0.651000000     4.459000000
H    -4.065000000     2.311000000     4.366000000
C    -2.467000000     0.828000000     4.476000000
C    -1.443000000     1.758000000     4.387000000
C    -0.145000000     1.361000000     4.550000000
H     0.719000000     2.014000000     4.453000000
C     0.157000000     0.046000000     4.811000000
O     1.512000000    -0.220000000     4.608000000
C     1.919000000    -0.879000000     3.357000000
H     1.105000000    -0.787000000     2.623000000
C     3.176000000    -0.266000000     2.774000000
C     3.981000000    -0.944000000     1.827000000
H     3.686000000    -1.964000000     1.594000000
C     3.577000000     1.053000000     3.105000000
H     3.008000000     1.642000000     3.820000000
C     4.658000000     1.642000000     2.443000000
O     5.122000000     2.868000000     2.747000000
C     5.338000000     0.874000000     1.491000000
H     6.219000000     1.200000000     0.945000000
C     5.147000000    -0.455000000     1.237000000
O     5.610000000    -1.079000000     0.166000000
C     5.794000000    -2.530000000     0.111000000
C     5.246000000    -3.128000000    -0.956000000
H     4.597000000    -2.569000000    -1.625000000
C     6.689000000    -3.168000000     0.921000000
H     7.120000000    -2.665000000     1.782000000
C     6.921000000    -4.532000000     0.709000000
H     7.567000000    -5.097000000     1.376000000
C     6.416000000    -5.130000000    -0.478000000
H     6.677000000    -6.166000000    -0.682000000
C     5.543000000    -4.446000000    -1.325000000
O     4.979000000    -5.066000000    -2.408000000
C     3.725000000    -4.790000000    -2.799000000
C     3.385000000    -4.609000000    -4.122000000
H     4.056000000    -4.536000000    -4.974000000
C     2.068000000    -4.363000000    -4.503000000
O     1.678000000    -4.160000000    -5.818000000
C     0.814000000    -3.206000000    -6.257000000
C     0.799000000    -1.937000000    -5.666000000
H     1.515000000    -1.606000000    -4.918000000
C    -0.014000000    -3.535000000    -7.250000000
H     0.148000000    -4.470000000    -7.781000000
C    -0.887000000    -2.560000000    -7.701000000
H    -1.585000000    -2.750000000    -8.513000000
C    -0.999000000    -1.293000000    -7.136000000
H    -1.743000000    -0.640000000    -7.586000000
C    -0.082000000    -0.994000000    -6.162000000
O    -0.127000000     0.250000000    -5.731000000
C    -1.219000000     0.778000000    -5.205000000
C    -1.644000000     2.139000000    -5.545000000
H    -1.156000000     2.648000000    -6.372000000
C    -2.568000000     2.760000000    -4.764000000
O    -2.798000000     4.143000000    -5.023000000
C    -2.901000000     4.913000000    -3.852000000
C    -1.760000000     5.173000000    -3.144000000
H    -0.863000000     4.631000000    -3.434000000
C    -4.067000000     5.664000000    -3.554000000
H    -4.960000000     5.567000000    -4.166000000
C    -4.147000000     6.415000000    -2.371000000
H    -5.086000000     6.924000000    -2.173000000
C    -2.992000000     6.565000000    -1.608000000
H    -3.025000000     7.186000000    -0.717000000
C    -1.849000000     6.031000000    -2.027000000
O    -0.649000000     6.261000000    -1.339000000
C    -0.444000000     5.932000000    -0.015000000
C     0.589000000     6.469000000     0.755000000
H     1.235000000     7.277000000     0.424000000
C     0.928000000     5.861000000     1.969000000
O     1.952000000     6.393000000     2.699000000
C     2.818000000     5.633000000     3.429000000
C     2.994000000     5.874000000     4.758000000
H     2.327000000     6.541000000     5.298000000
C     3.965000000     5.102000000     5.451000000
H     4.135000000     5.240000000     6.516000000
C     4.718000000     4.151000000     4.723000000
H     5.511000000     3.583000000     5.203000000
C     4.446000000     3.872000000     3.403000000
C     3.485000000     4.626000000     2.750000000
H     3.216000000     4.301000000     1.749000000
C     0.543000000     1.785000000    -1.964000000
H     0.169000000     2.589000000    -2.592000000
C    -0.217000000     1.370000000    -0.858000000
H    -1.091000000     1.944000000    -0.563000000
C     0.101000000     0.166000000    -0.296000000
C    -0.828000000    -0.311000000     0.801000000
H    -0.631000000    -1.302000000     1.215000000
H    -0.648000000     0.262000000     1.712000000
H    -1.903000000    -0.185000000     0.655000000
C     1.263000000    -0.516000000    -0.641000000
H     1.652000000    -1.354000000    -0.068000000
C     2.036000000    -0.071000000    -1.696000000
H     2.919000000    -0.642000000    -1.972000000
C     1.572000000     0.997000000    -2.491000000
C     2.264000000     1.314000000    -3.755000000
O     2.990000000     0.509000000    -4.260000000
O     2.090000000     2.401000000    -4.248000000
O     5.180000000    -0.161000000    -3.018000000
H     4.278000000    -0.206000000    -3.333000000
H     5.708000000    -0.461000000    -3.758000000
O     1.509000000     2.968000000    -6.805000000
H     1.673000000     2.753000000    -5.887000000
H     1.615000000     2.138000000    -7.269000000
O     1.898000000     0.897000000    -8.592000000
H     1.016000000     0.972000000    -8.955000000
H     2.453000000     1.379000000    -9.206000000
O     2.960000000    -1.481000000    -9.473000000
H     3.314000000    -1.983000000    -8.740000000
H     2.522000000    -0.735000000    -9.064000000
O     5.510000000     2.896000000    -8.655000000
H     5.100000000     3.379000000    -7.937000000
H     4.774000000     2.554000000    -9.164000000
O     4.680000000     2.997000000    -6.001000000
H     4.285000000     2.496000000    -5.287000000
H     4.456000000     3.907000000    -5.807000000
O     3.471000000    -0.581000000    -6.589000000
H     2.790000000    -0.275000000    -7.189000000
H     3.276000000    -0.143000000    -5.761000000
O     4.743000000     2.309000000    -1.502000000
H     4.876000000     1.609000000    -2.140000000
H     4.478000000     1.856000000    -0.701000000
O     7.953000000     2.168000000    -2.356000000
H     7.197000000     2.657000000    -2.681000000
H     8.711000000     2.638000000    -2.703000000
O    -0.110000000     3.936000000    -8.522000000
H    -0.786000000     4.516000000    -8.171000000
H     0.338000000     3.596000000    -7.748000000
O     4.070000000    -3.321000000    -7.570000000
H     4.066000000    -2.717000000    -6.827000000
H     4.615000000    -4.053000000    -7.280000000
O     6.130000000     0.186000000    -7.359000000
H     5.324000000    -0.315000000    -7.235000000
H     5.848000000     0.990000000    -7.794000000
O     1.859000000     5.356000000    -5.147000000
H     2.710000000     5.323000000    -4.709000000
H     1.794000000     4.519000000    -5.606000000
O     5.039000000     5.712000000    -5.641000000
H     4.690000000     6.078000000    -6.454000000
H     5.897000000     6.125000000    -5.541000000
O     8.006000000    -0.562000000    -1.486000000
H     8.075000000     0.294000000    -1.910000000
H     7.069000000    -0.757000000    -1.491000000
O     4.480000000     6.656000000    -1.387000000
H     3.963000000     5.908000000    -1.687000000
H     4.236000000     7.369000000    -1.977000000
O     7.459000000     3.193000000    -5.495000000
H     6.530000000     3.147000000    -5.718000000
H     7.885000000     2.610000000    -6.123000000
O     6.682000000    -2.193000000    -4.193000000
H     7.015000000    -2.319000000    -5.082000000
H     7.069000000    -2.909000000    -3.689000000
O     3.446000000     4.310000000    -2.676000000
H     2.810000000     3.724000000    -3.088000000
H     4.008000000     3.730000000    -2.163000000
