218
-1437.38293
C     1.043000000    -3.385000000    -3.567000000
H    -0.021000000    -3.471000000    -3.771000000
C     1.516000000    -3.762000000    -2.318000000
C     2.813000000    -3.395000000    -1.954000000
H     3.170000000    -3.464000000    -0.929000000
C     0.520000000    -4.001000000    -1.180000000
O    -0.760000000    -4.557000000    -1.608000000
H     0.400000000    -2.956000000    -0.858000000
O     1.064000000    -4.745000000    -0.120000000
C     0.815000000    -4.378000000     1.173000000
C     1.903000000    -3.791000000     1.836000000
H     2.873000000    -3.800000000     1.345000000
C     1.700000000    -3.320000000     3.172000000
O     2.723000000    -2.584000000     3.717000000
C     0.405000000    -3.347000000     3.740000000
C     0.068000000    -2.633000000     5.029000000
H    -0.710000000    -3.215000000     5.527000000
C    -0.215000000    -1.160000000     4.773000000
C    -1.549000000    -0.764000000     4.679000000
H    -2.314000000    -1.535000000     4.710000000
H     0.918000000    -2.618000000     5.715000000
C    -0.678000000    -3.987000000     3.085000000
H    -1.683000000    -3.986000000     3.500000000
C    -0.443000000    -4.560000000     1.803000000
C    -1.492000000    -5.345000000     1.046000000
H    -2.150000000    -5.910000000     1.709000000
H    -1.123000000    -6.161000000     0.422000000
C    -2.357000000    -4.388000000     0.171000000
C    -3.513000000    -3.822000000     0.643000000
H    -3.787000000    -3.965000000     1.685000000
C    -1.927000000    -4.046000000    -1.097000000
C    -2.682000000    -3.145000000    -1.888000000
H    -2.331000000    -2.927000000    -2.893000000
C    -3.736000000    -2.417000000    -1.346000000
O    -4.516000000    -1.610000000    -2.090000000
C    -4.104000000    -0.179000000    -2.020000000
C    -3.725000000     0.547000000    -3.311000000
C    -3.839000000     1.971000000    -3.412000000
H    -4.233000000     2.542000000    -2.575000000
C    -3.153000000    -0.229000000    -4.329000000
H    -2.972000000    -1.297000000    -4.238000000
O    -5.085000000     0.476000000    -1.172000000
H    -3.152000000    -0.037000000    -1.487000000
C    -4.140000000    -2.748000000    -0.082000000
C    -5.242000000    -1.929000000     0.505000000
H    -5.510000000    -2.530000000     1.376000000
H    -6.152000000    -1.914000000    -0.099000000
C    -4.821000000    -0.549000000     0.988000000
C    -4.401000000    -0.388000000     2.293000000
H    -4.438000000    -1.209000000     3.005000000
C    -4.767000000     0.608000000     0.123000000
C    -4.216000000     1.783000000     0.524000000
H    -4.137000000     2.638000000    -0.143000000
C    -3.690000000     1.871000000     1.797000000
O    -2.972000000     3.004000000     2.168000000
C    -1.494000000     2.843000000     2.151000000
C    -0.844000000     4.117000000     1.612000000
C    -1.594000000     4.952000000     0.759000000
H    -2.603000000     4.685000000     0.455000000
C     0.522000000     4.435000000     1.888000000
H     1.156000000     3.792000000     2.492000000
O    -1.114000000     2.690000000     3.545000000
H    -1.241000000     1.986000000     1.510000000
C    -3.837000000     0.819000000     2.676000000
C    -3.359000000     0.899000000     4.127000000
H    -4.094000000     0.319000000     4.688000000
H    -3.540000000     1.929000000     4.440000000
C    -1.890000000     0.524000000     4.286000000
C    -0.863000000     1.493000000     4.083000000
C     0.469000000     1.089000000     4.139000000
H     1.277000000     1.758000000     3.855000000
C     0.770000000    -0.211000000     4.544000000
O     2.066000000    -0.531000000     4.592000000
C     2.649000000    -1.137000000     3.463000000
H     2.091000000    -1.119000000     2.514000000
C     4.026000000    -0.547000000     3.207000000
C     5.032000000    -1.301000000     2.571000000
H     4.879000000    -2.336000000     2.278000000
C     4.261000000     0.873000000     3.469000000
H     3.530000000     1.493000000     3.981000000
C     5.416000000     1.480000000     2.960000000
O     5.721000000     2.816000000     3.157000000
C     6.322000000     0.745000000     2.221000000
H     7.209000000     1.201000000     1.790000000
C     6.124000000    -0.607000000     2.129000000
O     7.091000000    -1.319000000     1.433000000
C     6.805000000    -2.289000000     0.565000000
C     6.088000000    -1.969000000    -0.640000000
H     5.677000000    -0.972000000    -0.775000000
C     7.187000000    -3.626000000     0.756000000
H     7.700000000    -3.856000000     1.686000000
C     6.751000000    -4.620000000    -0.131000000
H     7.103000000    -5.646000000    -0.058000000
C     6.027000000    -4.330000000    -1.272000000
H     5.635000000    -5.159000000    -1.855000000
C     5.611000000    -2.965000000    -1.448000000
O     4.982000000    -2.492000000    -2.534000000
C     3.691000000    -2.818000000    -2.889000000
C     3.230000000    -2.559000000    -4.156000000
H     3.922000000    -1.969000000    -4.752000000
C     1.871000000    -2.738000000    -4.453000000
O     1.551000000    -2.492000000    -5.756000000
C     0.297000000    -2.365000000    -6.226000000
C    -0.535000000    -1.247000000    -5.993000000
H    -0.198000000    -0.398000000    -5.404000000
C    -0.248000000    -3.395000000    -7.025000000
H     0.360000000    -4.204000000    -7.423000000
C    -1.536000000    -3.436000000    -7.460000000
H    -1.841000000    -4.273000000    -8.084000000
C    -2.236000000    -2.268000000    -7.316000000
H    -3.199000000    -2.186000000    -7.813000000
C    -1.717000000    -1.174000000    -6.640000000
O    -2.578000000    -0.132000000    -6.583000000
C    -2.883000000     0.540000000    -5.457000000
C    -2.906000000     1.916000000    -5.554000000
H    -2.666000000     2.170000000    -6.583000000
C    -3.372000000     2.701000000    -4.532000000
O    -3.471000000     3.996000000    -4.638000000
C    -3.585000000     4.730000000    -3.533000000
C    -2.478000000     5.294000000    -2.830000000
H    -1.510000000     5.069000000    -3.270000000
C    -4.812000000     5.270000000    -3.165000000
H    -5.688000000     5.037000000    -3.764000000
C    -4.989000000     6.199000000    -2.115000000
H    -5.921000000     6.632000000    -1.760000000
C    -3.850000000     6.682000000    -1.435000000
H    -3.884000000     7.389000000    -0.610000000
C    -2.596000000     6.219000000    -1.777000000
O    -1.570000000     6.677000000    -1.002000000
C    -0.966000000     6.010000000     0.093000000
C     0.339000000     6.433000000     0.396000000
H     0.835000000     7.173000000    -0.227000000
C     0.981000000     5.660000000     1.314000000
O     2.321000000     5.894000000     1.454000000
C     3.138000000     5.466000000     2.501000000
C     2.982000000     6.035000000     3.774000000
H     2.252000000     6.819000000     3.959000000
C     3.788000000     5.564000000     4.841000000
H     3.812000000     5.961000000     5.852000000
C     4.696000000     4.501000000     4.615000000
H     5.362000000     4.126000000     5.387000000
C     4.794000000     3.904000000     3.336000000
C     3.999000000     4.413000000     2.331000000
H     4.055000000     3.926000000     1.361000000
C     0.181000000     0.729000000    -2.369000000
H    -0.405000000     1.327000000    -3.063000000
C    -0.397000000     0.375000000    -1.189000000
H    -1.447000000     0.585000000    -1.005000000
C     0.238000000    -0.433000000    -0.221000000
C    -0.582000000    -0.880000000     0.986000000
H    -0.755000000     0.002000000     1.606000000
H    -1.559000000    -1.296000000     0.732000000
H     0.062000000    -1.538000000     1.574000000
C     1.639000000    -0.640000000    -0.398000000
H     2.290000000    -1.110000000     0.335000000
C     2.242000000    -0.147000000    -1.559000000
H     3.308000000     0.027000000    -1.672000000
C     1.526000000     0.483000000    -2.592000000
C     2.231000000     1.034000000    -3.793000000
O     3.460000000     1.038000000    -3.848000000
O     1.621000000     1.364000000    -4.741000000
O    -0.464000000     4.900000000    -6.750000000
H    -1.029000000     5.055000000    -7.507000000
H    -0.075000000     5.754000000    -6.563000000
O     7.178000000    -1.189000000    -6.668000000
H     6.426000000    -1.316000000    -7.246000000
H     7.097000000    -1.883000000    -6.014000000
O     0.776000000     7.493000000    -3.032000000
H     0.541000000     6.586000000    -3.227000000
H     1.712000000     7.545000000    -3.226000000
O     0.711000000     3.959000000    -4.385000000
H     0.224000000     4.139000000    -5.189000000
H     0.966000000     3.040000000    -4.459000000
O     8.654000000    -1.115000000    -2.909000000
H     9.136000000    -0.899000000    -2.111000000
H     7.867000000    -0.571000000    -2.869000000
O     3.984000000     6.999000000    -2.634000000
H     3.917000000     7.860000000    -3.048000000
H     4.733000000     6.585000000    -3.062000000
O     6.359000000     0.830000000    -2.910000000
H     5.650000000     0.497000000    -3.460000000
H     5.953000000     1.521000000    -2.388000000
O     5.046000000     2.999000000    -1.345000000
H     4.981000000     3.952000000    -1.282000000
H     4.234000000     2.678000000    -0.952000000
O     7.609000000     4.128000000    -1.269000000
H     8.050000000     4.290000000    -2.103000000
H     6.829000000     3.625000000    -1.505000000
O     1.306000000     2.409000000    -7.035000000
H     1.514000000     2.069000000    -6.164000000
H     0.677000000     3.112000000    -6.874000000
O     6.387000000     5.794000000    -3.575000000
H     7.233000000     5.632000000    -3.994000000
H     5.782000000     5.199000000    -4.017000000
O     0.983000000     0.450000000    -9.539000000
H     1.577000000     0.642000000    -8.814000000
H     0.157000000     0.865000000    -9.289000000
O     4.306000000     4.003000000    -4.620000000
H     4.401000000     3.051000000    -4.645000000
H     3.492000000     4.150000000    -4.138000000
O     4.196000000     1.159000000    -6.703000000
H     3.849000000     0.899000000    -5.849000000
H     3.428000000     1.188000000    -7.274000000
O     3.885000000     5.839000000    -7.110000000
H     4.325000000     5.117000000    -7.560000000
H     3.898000000     5.588000000    -6.186000000
O     9.064000000     1.559000000    -4.146000000
H     9.437000000     1.468000000    -3.270000000
H     8.118000000     1.503000000    -4.011000000
O     2.484000000     3.574000000    -9.141000000
H     3.264000000     3.831000000    -8.648000000
H     1.990000000     3.022000000    -8.536000000
O     6.661000000    -2.953000000    -4.746000000
H     6.150000000    -2.479000000    -4.090000000
H     7.129000000    -3.622000000    -4.246000000
O     5.044000000     3.437000000    -7.871000000
H     4.937000000     2.656000000    -7.328000000
H     5.979000000     3.636000000    -7.823000000
