218
-1467.15293
C     1.363000000    -3.268000000    -3.002000000
H     0.386000000    -2.822000000    -3.169000000
C     1.658000000    -3.781000000    -1.768000000
C     3.069000000    -4.001000000    -1.498000000
H     3.352000000    -4.227000000    -0.473000000
C     0.560000000    -3.947000000    -0.698000000
O    -0.596000000    -4.619000000    -1.174000000
H     0.248000000    -2.952000000    -0.349000000
O     1.113000000    -4.686000000     0.403000000
C     0.775000000    -4.214000000     1.685000000
C     1.689000000    -3.341000000     2.145000000
H     2.554000000    -3.108000000     1.528000000
C     1.459000000    -2.638000000     3.381000000
O     2.410000000    -1.816000000     3.839000000
C     0.270000000    -2.794000000     4.083000000
C    -0.126000000    -1.969000000     5.297000000
H    -0.914000000    -2.451000000     5.881000000
C    -0.541000000    -0.564000000     4.913000000
C    -1.893000000    -0.276000000     4.779000000
H    -2.700000000    -0.984000000     4.955000000
H     0.743000000    -2.069000000     5.951000000
C    -0.699000000    -3.667000000     3.497000000
H    -1.587000000    -3.865000000     4.092000000
C    -0.451000000    -4.345000000     2.273000000
C    -1.512000000    -5.175000000     1.614000000
H    -2.283000000    -5.439000000     2.341000000
H    -1.147000000    -6.116000000     1.197000000
C    -2.310000000    -4.429000000     0.544000000
C    -3.474000000    -3.751000000     0.888000000
H    -3.860000000    -3.849000000     1.900000000
C    -1.749000000    -4.107000000    -0.697000000
C    -2.455000000    -3.390000000    -1.636000000
H    -1.926000000    -3.192000000    -2.564000000
C    -3.628000000    -2.742000000    -1.280000000
O    -4.216000000    -1.957000000    -2.270000000
C    -3.902000000    -0.594000000    -2.182000000
C    -3.653000000     0.024000000    -3.580000000
C    -4.011000000     1.339000000    -3.834000000
H    -4.577000000     1.902000000    -3.096000000
C    -2.967000000    -0.660000000    -4.572000000
H    -2.536000000    -1.611000000    -4.271000000
O    -4.950000000     0.044000000    -1.417000000
H    -2.951000000    -0.406000000    -1.663000000
C    -4.146000000    -2.922000000     0.006000000
C    -5.383000000    -2.080000000     0.436000000
H    -5.965000000    -2.525000000     1.245000000
H    -6.071000000    -2.054000000    -0.411000000
C    -5.055000000    -0.666000000     0.909000000
C    -4.810000000    -0.383000000     2.210000000
H    -5.028000000    -1.119000000     2.979000000
C    -4.737000000     0.242000000    -0.114000000
C    -4.337000000     1.526000000     0.239000000
H    -4.170000000     2.236000000    -0.568000000
C    -3.936000000     1.847000000     1.542000000
O    -3.215000000     3.035000000     1.581000000
C    -1.799000000     2.965000000     1.888000000
C    -0.986000000     4.052000000     1.200000000
C    -1.276000000     4.235000000    -0.160000000
H    -1.867000000     3.543000000    -0.755000000
C     0.004000000     4.788000000     1.832000000
H     0.211000000     4.626000000     2.887000000
O    -1.764000000     2.992000000     3.339000000
H    -1.436000000     1.970000000     1.589000000
C    -4.250000000     0.869000000     2.529000000
C    -3.855000000     1.209000000     3.942000000
H    -4.530000000     0.710000000     4.640000000
H    -3.988000000     2.292000000     3.990000000
C    -2.359000000     0.910000000     4.248000000
C    -1.329000000     1.896000000     3.960000000
C     0.008000000     1.698000000     4.218000000
H     0.637000000     2.552000000     3.982000000
C     0.432000000     0.452000000     4.659000000
O     1.802000000     0.273000000     4.639000000
C     2.416000000    -0.380000000     3.605000000
H     1.760000000    -0.211000000     2.738000000
C     3.780000000     0.154000000     3.162000000
C     4.704000000    -0.562000000     2.329000000
H     4.489000000    -1.604000000     2.106000000
C     4.046000000     1.529000000     3.383000000
H     3.376000000     2.108000000     4.014000000
C     5.001000000     2.149000000     2.636000000
O     5.323000000     3.499000000     2.740000000
C     5.843000000     1.420000000     1.836000000
H     6.649000000     1.993000000     1.383000000
C     5.791000000     0.076000000     1.705000000
O     6.580000000    -0.515000000     0.847000000
C     6.446000000    -1.805000000     0.617000000
C     5.803000000    -2.171000000    -0.552000000
H     5.440000000    -1.406000000    -1.234000000
C     7.065000000    -2.731000000     1.435000000
H     7.555000000    -2.442000000     2.361000000
C     6.905000000    -4.092000000     1.181000000
H     7.282000000    -4.848000000     1.866000000
C     6.345000000    -4.519000000    -0.049000000
H     6.267000000    -5.562000000    -0.344000000
C     5.843000000    -3.531000000    -0.957000000
O     5.430000000    -3.918000000    -2.171000000
C     4.058000000    -3.815000000    -2.451000000
C     3.655000000    -3.545000000    -3.725000000
H     4.446000000    -3.377000000    -4.451000000
C     2.330000000    -3.254000000    -3.994000000
O     2.021000000    -2.783000000    -5.279000000
C     0.721000000    -2.908000000    -5.850000000
C    -0.083000000    -1.758000000    -5.924000000
H     0.186000000    -0.766000000    -5.570000000
C     0.275000000    -4.122000000    -6.366000000
H     0.919000000    -4.999000000    -6.362000000
C    -0.927000000    -4.193000000    -7.136000000
H    -1.162000000    -5.097000000    -7.692000000
C    -1.629000000    -2.988000000    -7.236000000
H    -2.555000000    -3.006000000    -7.805000000
C    -1.248000000    -1.806000000    -6.590000000
O    -2.019000000    -0.679000000    -6.812000000
C    -2.707000000    -0.052000000    -5.787000000
C    -3.038000000     1.252000000    -5.972000000
H    -2.729000000     1.670000000    -6.926000000
C    -3.665000000     1.974000000    -5.038000000
O    -3.849000000     3.277000000    -5.209000000
C    -3.552000000     4.197000000    -4.265000000
C    -2.242000000     4.289000000    -3.717000000
H    -1.385000000     3.671000000    -3.973000000
C    -4.583000000     5.126000000    -3.907000000
H    -5.529000000     5.112000000    -4.442000000
C    -4.266000000     6.112000000    -2.977000000
H    -5.073000000     6.790000000    -2.711000000
C    -2.967000000     6.196000000    -2.410000000
H    -2.644000000     6.950000000    -1.697000000
C    -1.952000000     5.313000000    -2.822000000
O    -0.739000000     5.335000000    -2.238000000
C    -0.524000000     5.120000000    -0.931000000
C     0.476000000     5.888000000    -0.311000000
H     1.110000000     6.534000000    -0.914000000
C     0.773000000     5.697000000     1.085000000
O     1.821000000     6.458000000     1.654000000
C     2.741000000     6.029000000     2.605000000
C     2.851000000     6.676000000     3.867000000
H     2.242000000     7.538000000     4.128000000
C     3.844000000     6.236000000     4.756000000
H     4.006000000     6.752000000     5.699000000
C     4.667000000     5.110000000     4.471000000
H     5.503000000     4.841000000     5.112000000
C     4.455000000     4.415000000     3.198000000
C     3.517000000     4.873000000     2.301000000
H     3.415000000     4.385000000     1.335000000
C     0.717000000     1.134000000    -2.119000000
H     0.561000000     1.812000000    -2.953000000
C    -0.274000000     0.769000000    -1.213000000
H    -1.279000000     1.119000000    -1.434000000
C    -0.022000000    -0.069000000    -0.099000000
C    -1.096000000    -0.467000000     0.880000000
H    -1.353000000    -1.525000000     0.800000000
H    -0.797000000    -0.337000000     1.922000000
H    -2.056000000     0.024000000     0.708000000
C     1.292000000    -0.500000000     0.105000000
H     1.564000000    -1.047000000     1.005000000
C     2.240000000    -0.133000000    -0.797000000
H     3.276000000    -0.344000000    -0.547000000
C     1.993000000     0.696000000    -1.929000000
C     3.253000000     1.159000000    -2.719000000
O     4.177000000     0.408000000    -2.640000000
O     3.274000000     2.167000000    -3.368000000
O     0.038000000     2.711000000    -5.906000000
H    -0.453000000     3.468000000    -6.225000000
H     0.692000000     3.081000000    -5.313000000
O     7.090000000    -0.534000000    -7.819000000
H     6.468000000     0.171000000    -8.000000000
H     7.197000000    -0.980000000    -8.659000000
O     1.632000000     4.207000000    -4.391000000
H     1.343000000     4.649000000    -3.593000000
H     2.238000000     3.532000000    -4.085000000
O     6.276000000    -0.884000000    -3.828000000
H     5.396000000    -0.693000000    -3.502000000
H     6.850000000    -0.313000000    -3.317000000
O     5.963000000     1.993000000    -1.563000000
H     5.454000000     1.298000000    -1.978000000
H     5.335000000     2.448000000    -1.001000000
O     6.133000000     6.082000000    -0.777000000
H     5.475000000     6.742000000    -0.998000000
H     6.424000000     5.742000000    -1.623000000
O     2.086000000     1.126000000    -6.945000000
H     2.838000000     1.527000000    -6.510000000
H     1.325000000     1.530000000    -6.529000000
O     3.346000000     6.722000000    -3.554000000
H     3.825000000     7.025000000    -4.325000000
H     3.786000000     5.910000000    -3.302000000
O     3.287000000    -1.208000000    -7.324000000
H     2.854000000    -0.359000000    -7.235000000
H     3.035000000    -1.689000000    -6.536000000
O     8.614000000     2.344000000    -4.682000000
H     8.638000000     1.663000000    -4.010000000
H     8.609000000     1.863000000    -5.510000000
O     4.869000000     4.528000000    -2.897000000
H     5.758000000     4.217000000    -3.065000000
H     4.308000000     3.788000000    -3.131000000
O     4.624000000     1.742000000    -5.870000000
H     4.355000000     1.831000000    -4.956000000
H     5.187000000     0.968000000    -5.880000000
O     4.295000000     0.556000000    -9.244000000
H     3.540000000     1.117000000    -9.422000000
H     4.031000000     0.032000000    -8.487000000
O     0.778000000     7.300000000    -4.329000000
H     0.527000000     6.520000000    -4.824000000
H     1.568000000     7.039000000    -3.855000000
O     9.490000000    -0.048000000    -2.984000000
H    10.064000000    -0.575000000    -2.428000000
H     9.201000000     0.669000000    -2.419000000
O     2.199000000     2.528000000    -9.634000000
H     2.192000000     3.462000000    -9.845000000
H     2.430000000     2.495000000    -8.705000000
O     7.510000000    -2.149000000    -5.752000000
H     7.319000000    -1.709000000    -6.581000000
H     7.100000000    -1.595000000    -5.087000000
O     4.002000000     4.332000000    -7.792000000
H     4.349000000     3.509000000    -7.447000000
H     4.646000000     4.991000000    -7.533000000
O     8.680000000     1.907000000    -1.298000000
H     7.782000000     2.235000000    -1.360000000
H     8.695000000     1.404000000    -0.484000000
