218
-1448.04068
C     1.260000000    -3.247000000    -2.911000000
H     0.207000000    -3.063000000    -3.108000000
C     1.678000000    -3.733000000    -1.691000000
C     3.027000000    -3.875000000    -1.410000000
H     3.328000000    -4.214000000    -0.422000000
C     0.676000000    -3.907000000    -0.506000000
O    -0.607000000    -4.469000000    -0.929000000
H     0.383000000    -2.905000000    -0.157000000
O     1.039000000    -4.712000000     0.642000000
C     0.864000000    -4.112000000     1.797000000
C     1.955000000    -3.416000000     2.405000000
H     2.937000000    -3.334000000     1.945000000
C     1.663000000    -2.656000000     3.516000000
O     2.603000000    -1.823000000     3.974000000
C     0.402000000    -2.631000000     4.073000000
C     0.090000000    -1.755000000     5.279000000
H    -0.785000000    -2.055000000     5.859000000
C    -0.268000000    -0.258000000     4.873000000
C    -1.621000000     0.004000000     4.688000000
H    -2.400000000    -0.717000000     4.923000000
H     0.893000000    -1.834000000     6.014000000
C    -0.617000000    -3.428000000     3.564000000
H    -1.573000000    -3.476000000     4.081000000
C    -0.415000000    -4.175000000     2.407000000
C    -1.536000000    -5.056000000     1.860000000
H    -2.199000000    -5.358000000     2.673000000
H    -1.044000000    -5.946000000     1.463000000
C    -2.293000000    -4.231000000     0.802000000
C    -3.434000000    -3.528000000     1.193000000
H    -3.769000000    -3.639000000     2.222000000
C    -1.824000000    -3.963000000    -0.502000000
C    -2.593000000    -3.321000000    -1.445000000
H    -2.208000000    -3.162000000    -2.450000000
C    -3.730000000    -2.586000000    -1.031000000
O    -4.333000000    -1.883000000    -2.026000000
C    -4.120000000    -0.362000000    -2.019000000
C    -4.074000000     0.164000000    -3.442000000
C    -4.526000000     1.427000000    -3.827000000
H    -5.155000000     2.008000000    -3.158000000
C    -3.316000000    -0.522000000    -4.406000000
H    -2.882000000    -1.438000000    -4.014000000
O    -5.185000000     0.294000000    -1.297000000
H    -3.141000000    -0.012000000    -1.659000000
C    -4.145000000    -2.679000000     0.322000000
C    -5.419000000    -1.952000000     0.848000000
H    -5.876000000    -2.454000000     1.703000000
H    -6.058000000    -2.102000000    -0.024000000
C    -5.091000000    -0.458000000     1.092000000
C    -4.642000000    -0.065000000     2.361000000
H    -4.861000000    -0.773000000     3.157000000
C    -5.031000000     0.519000000     0.063000000
C    -4.367000000     1.752000000     0.232000000
H    -4.184000000     2.384000000    -0.633000000
C    -3.830000000     2.043000000     1.440000000
O    -3.212000000     3.218000000     1.471000000
C    -1.769000000     3.206000000     1.719000000
C    -0.974000000     4.198000000     0.848000000
C    -1.454000000     4.304000000    -0.450000000
H    -2.388000000     3.874000000    -0.800000000
C     0.192000000     4.706000000     1.235000000
H     0.613000000     4.491000000     2.213000000
O    -1.453000000     3.376000000     3.143000000
H    -1.395000000     2.194000000     1.501000000
C    -4.014000000     1.157000000     2.575000000
C    -3.520000000     1.513000000     3.999000000
H    -4.061000000     0.880000000     4.705000000
H    -3.694000000     2.545000000     4.312000000
C    -2.064000000     1.226000000     4.127000000
C    -1.108000000     2.177000000     3.746000000
C     0.236000000     1.912000000     3.980000000
H     1.012000000     2.652000000     3.803000000
C     0.676000000     0.661000000     4.497000000
O     2.061000000     0.429000000     4.592000000
C     2.583000000    -0.413000000     3.568000000
H     1.881000000    -0.280000000     2.732000000
C     4.028000000     0.066000000     3.179000000
C     5.054000000    -0.824000000     2.804000000
H     4.875000000    -1.895000000     2.759000000
C     4.220000000     1.419000000     3.005000000
H     3.453000000     2.163000000     3.208000000
C     5.530000000     1.917000000     2.596000000
O     5.796000000     3.252000000     2.347000000
C     6.568000000     0.993000000     2.361000000
H     7.574000000     1.296000000     2.081000000
C     6.343000000    -0.388000000     2.362000000
O     7.292000000    -1.310000000     1.911000000
C     6.932000000    -2.478000000     1.149000000
C     6.331000000    -2.377000000    -0.114000000
H     6.256000000    -1.401000000    -0.587000000
C     7.126000000    -3.719000000     1.702000000
H     7.686000000    -3.925000000     2.610000000
C     6.778000000    -4.869000000     0.989000000
H     7.011000000    -5.846000000     1.404000000
C     6.205000000    -4.732000000    -0.342000000
H     5.908000000    -5.587000000    -0.945000000
C     5.910000000    -3.499000000    -0.887000000
O     5.312000000    -3.463000000    -2.080000000
C     3.959000000    -3.531000000    -2.324000000
C     3.553000000    -3.050000000    -3.554000000
H     4.273000000    -2.688000000    -4.284000000
C     2.168000000    -2.790000000    -3.824000000
O     1.861000000    -2.245000000    -5.024000000
C     0.603000000    -2.513000000    -5.493000000
C    -0.285000000    -1.440000000    -5.796000000
H    -0.039000000    -0.394000000    -5.626000000
C     0.184000000    -3.827000000    -5.690000000
H     0.918000000    -4.610000000    -5.517000000
C    -1.084000000    -4.058000000    -6.227000000
H    -1.447000000    -5.051000000    -6.481000000
C    -1.975000000    -2.946000000    -6.602000000
H    -2.975000000    -3.029000000    -7.019000000
C    -1.555000000    -1.701000000    -6.269000000
O    -2.306000000    -0.646000000    -6.608000000
C    -3.064000000    -0.009000000    -5.671000000
C    -3.611000000     1.190000000    -6.034000000
H    -3.329000000     1.643000000    -6.981000000
C    -4.329000000     1.899000000    -5.133000000
O    -4.654000000     3.155000000    -5.373000000
C    -4.112000000     4.108000000    -4.481000000
C    -2.763000000     4.067000000    -4.071000000
H    -2.107000000     3.292000000    -4.458000000
C    -4.980000000     5.058000000    -3.958000000
H    -5.979000000     5.052000000    -4.386000000
C    -4.610000000     5.955000000    -2.998000000
H    -5.268000000     6.751000000    -2.656000000
C    -3.240000000     5.953000000    -2.612000000
H    -2.856000000     6.595000000    -1.824000000
C    -2.331000000     5.011000000    -3.181000000
O    -1.083000000     4.928000000    -2.769000000
C    -0.725000000     4.967000000    -1.393000000
C     0.505000000     5.458000000    -1.087000000
H     1.193000000     5.859000000    -1.828000000
C     0.957000000     5.366000000     0.274000000
O     2.141000000     5.959000000     0.609000000
C     2.903000000     5.511000000     1.649000000
C     2.893000000     6.236000000     2.822000000
H     2.234000000     7.095000000     2.927000000
C     3.750000000     5.947000000     3.874000000
H     3.687000000     6.497000000     4.810000000
C     4.723000000     4.970000000     3.741000000
H     5.304000000     4.874000000     4.655000000
C     4.814000000     4.231000000     2.508000000
C     3.925000000     4.572000000     1.451000000
H     4.002000000     4.176000000     0.441000000
C     0.347000000     1.411000000    -2.047000000
H     0.124000000     2.298000000    -2.634000000
C    -0.405000000     0.955000000    -1.037000000
H    -1.391000000     1.377000000    -0.859000000
C     0.029000000     0.144000000    -0.033000000
C    -0.979000000    -0.461000000     0.937000000
H    -1.364000000    -1.379000000     0.489000000
H    -0.470000000    -0.761000000     1.855000000
H    -1.822000000     0.191000000     1.175000000
C     1.271000000    -0.462000000    -0.263000000
H     1.625000000    -1.270000000     0.373000000
C     2.088000000    -0.055000000    -1.364000000
H     3.039000000    -0.568000000    -1.486000000
C     1.670000000     0.974000000    -2.164000000
C     2.649000000     1.461000000    -3.238000000
O     3.730000000     1.003000000    -3.397000000
O     2.272000000     2.178000000    -4.076000000
O     5.171000000     5.000000000    -3.502000000
H     5.560000000     5.684000000    -4.047000000
H     5.791000000     4.273000000    -3.551000000
O     0.649000000     2.111000000    -8.257000000
H     0.085000000     2.717000000    -8.736000000
H     0.359000000     2.181000000    -7.348000000
O     0.505000000    -0.518000000    -8.353000000
H     0.582000000     0.407000000    -8.121000000
H    -0.316000000    -0.799000000    -7.951000000
O     2.409000000    -2.397000000    -8.865000000
H     1.979000000    -2.576000000    -9.701000000
H     1.950000000    -1.633000000    -8.518000000
O     0.006000000     3.012000000    -5.590000000
H     0.595000000     2.623000000    -4.944000000
H    -0.023000000     3.941000000    -5.359000000
O     5.496000000    -0.250000000    -4.714000000
H     5.157000000    -0.365000000    -5.602000000
H     4.731000000     0.000000000    -4.196000000
O     5.580000000     0.621000000    -1.537000000
H     4.800000000     0.694000000    -2.086000000
H     5.790000000     1.523000000    -1.297000000
O     5.402000000     6.678000000    -1.060000000
H     6.266000000     6.590000000    -0.657000000
H     5.297000000     5.880000000    -1.578000000
O     2.726000000     0.340000000    -6.128000000
H     2.746000000     0.919000000    -5.366000000
H     2.584000000     0.928000000    -6.871000000
O     2.723000000     5.265000000    -7.982000000
H     2.402000000     4.822000000    -7.197000000
H     3.559000000     5.649000000    -7.715000000
O     4.810000000    -1.243000000    -7.207000000
H     3.961000000    -0.805000000    -7.147000000
H     4.606000000    -2.114000000    -7.546000000
O     5.751000000     2.489000000    -4.621000000
H     4.826000000     2.693000000    -4.487000000
H     5.807000000     1.541000000    -4.503000000
O     2.567000000     4.629000000    -5.324000000
H     3.146000000     5.082000000    -4.712000000
H     2.446000000     3.760000000    -4.940000000
O     6.479000000     3.190000000    -7.165000000
H     6.084000000     2.838000000    -6.368000000
H     7.421000000     3.078000000    -7.036000000
O     3.060000000     2.198000000   -10.015000000
H     2.326000000     2.533000000    -9.501000000
H     3.299000000     2.925000000   -10.591000000
O     7.882000000    -0.583000000    -3.122000000
H     7.321000000    -0.761000000    -3.877000000
H     7.272000000    -0.425000000    -2.402000000
O     6.994000000    -2.400000000    -5.833000000
H     6.635000000    -2.495000000    -6.715000000
H     6.618000000    -1.583000000    -5.508000000
O     8.067000000     3.977000000    -3.716000000
H     8.739000000     3.993000000    -4.397000000
H     7.493000000     3.251000000    -3.962000000
O     7.155000000     4.167000000    -1.310000000
H     7.642000000     4.228000000    -2.132000000
H     7.599000000     3.474000000    -0.820000000
