218
-1449.28536
C    -0.165000000    -4.260000000     0.146000000
H    -1.200000000    -3.926000000     0.146000000
C     0.679000000    -4.145000000     1.230000000
C     2.013000000    -4.595000000     1.098000000
H     2.773000000    -4.330000000     1.828000000
C     0.156000000    -3.498000000     2.508000000
O    -1.118000000    -3.904000000     2.976000000
H     0.129000000    -2.413000000     2.326000000
O     1.149000000    -3.476000000     3.654000000
C     1.467000000    -2.270000000     4.111000000
C     2.697000000    -1.691000000     3.772000000
H     3.430000000    -2.259000000     3.205000000
C     2.905000000    -0.367000000     3.843000000
O     3.986000000     0.083000000     3.129000000
C     2.000000000     0.372000000     4.594000000
C     2.198000000     1.841000000     4.829000000
H     1.769000000     2.110000000     5.797000000
C     1.606000000     2.662000000     3.717000000
C     0.314000000     3.155000000     3.742000000
H    -0.320000000     2.909000000     4.590000000
H     3.268000000     2.011000000     4.962000000
C     0.854000000    -0.223000000     5.136000000
H     0.133000000     0.371000000     5.691000000
C     0.509000000    -1.505000000     4.841000000
C    -0.826000000    -1.950000000     5.213000000
H    -1.063000000    -1.477000000     6.168000000
H    -0.635000000    -2.999000000     5.449000000
C    -1.881000000    -1.818000000     4.103000000
C    -2.842000000    -0.793000000     4.188000000
H    -2.561000000    -0.070000000     4.949000000
C    -1.963000000    -2.831000000     3.105000000
C    -2.929000000    -2.636000000     2.168000000
H    -3.152000000    -3.378000000     1.405000000
C    -3.846000000    -1.616000000     2.107000000
O    -4.716000000    -1.522000000     0.975000000
C    -4.370000000    -0.503000000    -0.003000000
C    -4.689000000    -0.943000000    -1.441000000
C    -4.583000000    -0.043000000    -2.542000000
H    -4.492000000     1.027000000    -2.374000000
C    -4.803000000    -2.300000000    -1.767000000
H    -4.854000000    -3.118000000    -1.054000000
O    -5.084000000     0.719000000     0.378000000
H    -3.284000000    -0.353000000     0.086000000
C    -3.785000000    -0.695000000     3.179000000
C    -4.673000000     0.534000000     3.297000000
H    -4.742000000     0.879000000     4.331000000
H    -5.726000000     0.407000000     3.040000000
C    -4.073000000     1.647000000     2.434000000
C    -3.259000000     2.635000000     2.999000000
H    -2.974000000     2.631000000     4.048000000
C    -4.341000000     1.685000000     1.032000000
C    -3.589000000     2.510000000     0.256000000
H    -3.640000000     2.329000000    -0.815000000
C    -2.813000000     3.460000000     0.816000000
O    -2.112000000     4.304000000     0.033000000
C    -0.740000000     3.969000000    -0.356000000
C    -0.497000000     4.181000000    -1.896000000
C    -1.614000000     4.378000000    -2.753000000
H    -2.619000000     4.536000000    -2.369000000
C     0.759000000     3.897000000    -2.423000000
H     1.541000000     3.541000000    -1.756000000
O     0.167000000     4.709000000     0.466000000
H    -0.549000000     2.907000000    -0.140000000
C    -2.655000000     3.563000000     2.196000000
C    -1.586000000     4.517000000     2.878000000
H    -1.733000000     4.592000000     3.957000000
H    -1.740000000     5.485000000     2.396000000
C    -0.215000000     3.851000000     2.657000000
C     0.669000000     4.107000000     1.546000000
C     1.944000000     3.610000000     1.487000000
H     2.546000000     3.631000000     0.582000000
C     2.422000000     2.886000000     2.563000000
O     3.640000000     2.286000000     2.416000000
C     3.692000000     0.843000000     1.973000000
H     2.704000000     0.494000000     1.641000000
C     4.701000000     0.528000000     0.890000000
C     5.299000000    -0.726000000     0.701000000
H     4.938000000    -1.551000000     1.311000000
C     4.904000000     1.530000000    -0.093000000
H     4.415000000     2.490000000     0.051000000
C     5.878000000     1.350000000    -1.151000000
O     6.224000000     2.350000000    -2.021000000
C     6.554000000     0.150000000    -1.177000000
H     7.349000000     0.057000000    -1.913000000
C     6.174000000    -0.949000000    -0.370000000
O     6.939000000    -2.117000000    -0.480000000
C     6.626000000    -3.360000000     0.033000000
C     5.369000000    -3.845000000    -0.212000000
H     4.628000000    -3.282000000    -0.775000000
C     7.583000000    -4.200000000     0.693000000
H     8.560000000    -3.725000000     0.700000000
C     7.171000000    -5.398000000     1.232000000
H     7.836000000    -6.017000000     1.829000000
C     5.931000000    -5.895000000     0.857000000
H     5.573000000    -6.853000000     1.225000000
C     5.019000000    -5.122000000     0.135000000
O     3.772000000    -5.651000000    -0.189000000
C     2.501000000    -5.165000000    -0.080000000
C     1.627000000    -5.325000000    -1.148000000
H     1.908000000    -5.820000000    -2.074000000
C     0.361000000    -4.789000000    -1.048000000
O    -0.412000000    -4.810000000    -2.165000000
C    -1.722000000    -5.279000000    -2.273000000
C    -2.658000000    -4.457000000    -2.773000000
H    -2.322000000    -3.435000000    -2.926000000
C    -2.034000000    -6.596000000    -1.985000000
H    -1.292000000    -7.277000000    -1.575000000
C    -3.336000000    -7.057000000    -2.268000000
H    -3.652000000    -8.057000000    -1.985000000
C    -4.327000000    -6.193000000    -2.711000000
H    -5.366000000    -6.513000000    -2.738000000
C    -3.980000000    -4.909000000    -3.028000000
O    -4.990000000    -4.007000000    -3.397000000
C    -4.937000000    -2.683000000    -3.067000000
C    -4.859000000    -1.807000000    -4.109000000
H    -4.814000000    -2.217000000    -5.115000000
C    -4.699000000    -0.417000000    -3.879000000
O    -4.578000000     0.554000000    -4.859000000
C    -4.762000000     1.941000000    -4.616000000
C    -3.593000000     2.681000000    -4.898000000
H    -2.634000000     2.228000000    -5.136000000
C    -5.948000000     2.539000000    -4.403000000
H    -6.900000000     2.019000000    -4.468000000
C    -6.006000000     3.895000000    -4.372000000
H    -6.995000000     4.333000000    -4.262000000
C    -4.869000000     4.729000000    -4.493000000
H    -4.955000000     5.808000000    -4.402000000
C    -3.625000000     4.121000000    -4.801000000
O    -2.477000000     4.866000000    -4.961000000
C    -1.392000000     4.608000000    -4.123000000
C    -0.131000000     4.461000000    -4.623000000
H     0.003000000     4.547000000    -5.698000000
C     0.924000000     3.992000000    -3.829000000
O     2.221000000     3.830000000    -4.285000000
C     3.374000000     4.159000000    -3.581000000
C     3.525000000     5.356000000    -2.955000000
H     2.767000000     6.092000000    -3.211000000
C     4.524000000     5.571000000    -2.000000000
H     4.573000000     6.530000000    -1.492000000
C     5.411000000     4.537000000    -1.710000000
H     6.266000000     4.691000000    -1.056000000
C     5.253000000     3.323000000    -2.297000000
C     4.290000000     3.120000000    -3.270000000
H     4.219000000     2.152000000    -3.760000000
C    -0.346000000    -0.460000000    -2.724000000
H    -1.041000000    -0.176000000    -3.511000000
C    -0.521000000     0.129000000    -1.476000000
H    -1.358000000     0.795000000    -1.281000000
C     0.275000000    -0.188000000    -0.370000000
C    -0.027000000     0.310000000     1.007000000
H    -1.088000000     0.112000000     1.174000000
H     0.601000000    -0.189000000     1.748000000
H     0.262000000     1.342000000     1.215000000
C     1.309000000    -1.050000000    -0.497000000
H     1.839000000    -1.436000000     0.370000000
C     1.557000000    -1.647000000    -1.766000000
H     2.377000000    -2.341000000    -1.932000000
C     0.782000000    -1.254000000    -2.913000000
C     1.041000000    -1.994000000    -4.216000000
O     2.127000000    -2.539000000    -4.476000000
O     0.237000000    -1.769000000    -5.149000000
O    -3.053000000    -5.099000000    -6.734000000
H    -3.746000000    -4.541000000    -7.088000000
H    -2.384000000    -4.486000000    -6.430000000
O    -0.893000000    -3.616000000    -6.445000000
H    -1.226000000    -3.022000000    -7.118000000
H    -0.634000000    -3.041000000    -5.725000000
O     6.403000000     0.991000000    -5.054000000
H     6.375000000     0.055000000    -4.856000000
H     7.135000000     1.324000000    -4.534000000
O     4.237000000    -5.766000000    -7.694000000
H     4.058000000    -4.826000000    -7.689000000
H     5.115000000    -5.840000000    -8.068000000
O     4.516000000    -3.806000000    -3.611000000
H     3.755000000    -3.232000000    -3.699000000
H     4.247000000    -4.626000000    -4.025000000
O    -1.402000000    -1.144000000    -8.341000000
H    -1.465000000    -1.771000000    -9.062000000
H    -2.295000000    -0.819000000    -8.227000000
O     3.492000000    -0.432000000    -5.473000000
H     2.877000000    -1.049000000    -5.076000000
H     4.356000000    -0.757000000    -5.219000000
O     1.258000000    -1.916000000    -7.458000000
H     1.096000000    -1.091000000    -7.917000000
H     0.930000000    -1.764000000    -6.571000000
O     5.674000000    -1.151000000    -7.597000000
H     5.347000000    -0.747000000    -6.794000000
H     6.154000000    -0.451000000    -8.040000000
O     3.237000000     1.445000000    -9.054000000
H     2.391000000     1.064000000    -9.291000000
H     3.172000000     1.606000000    -8.113000000
O     6.044000000    -1.714000000    -4.841000000
H     6.975000000    -1.934000000    -4.822000000
H     5.609000000    -2.482000000    -4.471000000
O    -0.369000000     0.804000000    -6.295000000
H    -0.255000000    -0.051000000    -5.880000000
H    -0.925000000     0.629000000    -7.054000000
O     3.542000000    -6.289000000    -5.141000000
H     3.900000000    -6.355000000    -6.026000000
H     2.647000000    -5.974000000    -5.267000000
O     3.816000000    -3.151000000    -7.542000000
H     2.983000000    -2.691000000    -7.439000000
H     4.478000000    -2.510000000    -7.283000000
O     0.888000000     0.115000000    -9.473000000
H     0.822000000    -0.553000000   -10.156000000
H     0.216000000     0.758000000    -9.702000000
O     1.422000000    -4.910000000    -5.721000000
H     0.630000000    -4.672000000    -6.203000000
H     1.600000000    -4.152000000    -5.164000000
O     2.464000000     1.700000000    -6.411000000
H     2.846000000     0.959000000    -5.941000000
H     1.527000000     1.645000000    -6.226000000
O    -0.032000000    -7.159000000    -5.144000000
H    -0.796000000    -6.583000000    -5.122000000
H     0.684000000    -6.597000000    -5.439000000
O     1.909000000    -3.661000000   -10.210000000
H     2.272000000    -3.446000000    -9.351000000
H     1.270000000    -2.969000000   -10.379000000
