218
-1486.36466
C     2.525000000    -4.244000000     0.407000000
H     1.500000000    -4.575000000     0.266000000
C     2.876000000    -3.510000000     1.588000000
C     4.190000000    -3.150000000     1.760000000
H     4.495000000    -2.677000000     2.690000000
C     1.803000000    -2.991000000     2.514000000
O     0.754000000    -3.921000000     2.603000000
H     1.328000000    -2.153000000     1.984000000
O     2.237000000    -2.513000000     3.854000000
C     1.707000000    -1.300000000     4.203000000
C     2.436000000    -0.152000000     3.876000000
H     3.460000000    -0.182000000     3.510000000
C     1.896000000     1.121000000     4.088000000
O     2.561000000     2.224000000     3.622000000
C     0.557000000     1.197000000     4.642000000
C    -0.067000000     2.594000000     4.821000000
H    -0.817000000     2.550000000     5.613000000
C    -0.742000000     3.127000000     3.545000000
C    -2.124000000     2.905000000     3.416000000
H    -2.680000000     2.512000000     4.263000000
H     0.690000000     3.302000000     5.164000000
C    -0.098000000     0.023000000     5.078000000
H    -1.118000000     0.070000000     5.451000000
C     0.440000000    -1.220000000     4.798000000
C    -0.421000000    -2.466000000     5.052000000
H    -1.047000000    -2.412000000     5.945000000
H     0.263000000    -3.261000000     5.356000000
C    -1.159000000    -2.858000000     3.792000000
C    -2.440000000    -2.345000000     3.776000000
H    -2.818000000    -1.901000000     4.693000000
C    -0.599000000    -3.625000000     2.738000000
C    -1.407000000    -3.833000000     1.610000000
H    -1.024000000    -4.425000000     0.783000000
C    -2.623000000    -3.280000000     1.489000000
O    -3.375000000    -3.477000000     0.309000000
C    -3.567000000    -2.476000000    -0.625000000
C    -3.395000000    -3.076000000    -1.999000000
C    -4.124000000    -2.468000000    -3.059000000
H    -4.892000000    -1.732000000    -2.835000000
C    -2.515000000    -4.111000000    -2.306000000
H    -1.985000000    -4.593000000    -1.489000000
O    -4.940000000    -2.034000000    -0.452000000
H    -2.915000000    -1.605000000    -0.457000000
C    -3.130000000    -2.498000000     2.552000000
C    -4.506000000    -1.995000000     2.395000000
H    -4.864000000    -1.660000000     3.371000000
H    -5.177000000    -2.828000000     2.175000000
C    -4.723000000    -0.770000000     1.545000000
C    -4.603000000     0.524000000     2.127000000
H    -4.383000000     0.810000000     3.152000000
C    -4.945000000    -0.813000000     0.157000000
C    -4.897000000     0.305000000    -0.644000000
H    -4.991000000     0.232000000    -1.724000000
C    -4.595000000     1.515000000    -0.099000000
O    -4.231000000     2.534000000    -1.017000000
C    -2.826000000     2.906000000    -0.984000000
C    -2.260000000     3.291000000    -2.350000000
C    -2.490000000     2.416000000    -3.403000000
H    -3.152000000     1.565000000    -3.266000000
C    -1.271000000     4.243000000    -2.458000000
H    -1.015000000     4.784000000    -1.550000000
O    -2.583000000     3.979000000    -0.092000000
H    -2.184000000     2.076000000    -0.651000000
C    -4.497000000     1.615000000     1.299000000
C    -4.274000000     2.949000000     1.996000000
H    -4.732000000     3.040000000     2.983000000
H    -4.772000000     3.753000000     1.450000000
C    -2.773000000     3.235000000     2.199000000
C    -2.010000000     3.793000000     1.132000000
C    -0.676000000     4.111000000     1.340000000
H    -0.099000000     4.654000000     0.596000000
C    -0.034000000     3.777000000     2.526000000
O     1.335000000     3.951000000     2.561000000
C     2.149000000     2.718000000     2.338000000
H     1.545000000     1.972000000     1.801000000
C     3.349000000     2.952000000     1.419000000
C     4.464000000     2.148000000     1.593000000
H     4.579000000     1.574000000     2.509000000
C     3.263000000     3.805000000     0.260000000
H     2.430000000     4.486000000     0.105000000
C     4.312000000     3.903000000    -0.619000000
O     4.490000000     4.960000000    -1.511000000
C     5.473000000     3.150000000    -0.383000000
H     6.328000000     3.220000000    -1.050000000
C     5.537000000     2.344000000     0.760000000
O     6.726000000     1.716000000     0.947000000
C     6.848000000     0.465000000     1.553000000
C     6.400000000    -0.746000000     0.980000000
H     5.779000000    -0.649000000     0.093000000
C     7.679000000     0.374000000     2.680000000
H     8.135000000     1.273000000     3.088000000
C     7.985000000    -0.824000000     3.252000000
H     8.625000000    -0.909000000     4.127000000
C     7.577000000    -1.986000000     2.656000000
H     7.873000000    -2.948000000     3.066000000
C     6.798000000    -1.967000000     1.481000000
O     6.376000000    -3.172000000     0.886000000
C     5.103000000    -3.473000000     0.774000000
C     4.763000000    -4.225000000    -0.320000000
H     5.523000000    -4.497000000    -1.048000000
C     3.479000000    -4.665000000    -0.545000000
O     3.125000000    -5.392000000    -1.680000000
C     1.855000000    -5.874000000    -1.872000000
C     1.004000000    -5.350000000    -2.816000000
H     1.538000000    -4.625000000    -3.425000000
C     1.390000000    -6.938000000    -1.065000000
H     2.082000000    -7.373000000    -0.349000000
C     0.055000000    -7.389000000    -1.154000000
H    -0.282000000    -8.236000000    -0.560000000
C    -0.796000000    -6.793000000    -2.085000000
H    -1.778000000    -7.246000000    -2.190000000
C    -0.322000000    -5.790000000    -2.965000000
O    -1.101000000    -5.217000000    -3.914000000
C    -2.213000000    -4.464000000    -3.602000000
C    -3.042000000    -3.952000000    -4.608000000
H    -2.844000000    -4.083000000    -5.669000000
C    -3.898000000    -2.922000000    -4.331000000
O    -4.513000000    -2.353000000    -5.376000000
C    -4.548000000    -1.024000000    -5.471000000
C    -3.377000000    -0.290000000    -5.675000000
H    -2.421000000    -0.780000000    -5.843000000
C    -5.745000000    -0.288000000    -5.334000000
H    -6.638000000    -0.849000000    -5.071000000
C    -5.838000000     1.108000000    -5.467000000
H    -6.766000000     1.674000000    -5.453000000
C    -4.645000000     1.813000000    -5.751000000
H    -4.643000000     2.889000000    -5.908000000
C    -3.428000000     1.138000000    -5.754000000
O    -2.221000000     1.788000000    -5.756000000
C    -1.886000000     2.625000000    -4.673000000
C    -0.927000000     3.627000000    -4.774000000
H    -0.371000000     3.778000000    -5.695000000
C    -0.625000000     4.466000000    -3.692000000
O     0.272000000     5.526000000    -3.824000000
C     1.131000000     5.909000000    -2.837000000
C     1.145000000     7.309000000    -2.701000000
H     0.344000000     7.876000000    -3.168000000
C     2.253000000     7.828000000    -2.092000000
H     2.345000000     8.890000000    -1.877000000
C     3.339000000     7.047000000    -1.670000000
H     4.183000000     7.541000000    -1.195000000
C     3.342000000     5.657000000    -1.874000000
C     2.170000000     5.099000000    -2.391000000
H     2.234000000     4.054000000    -2.683000000
C     0.094000000    -1.383000000    -2.710000000
H    -0.477000000    -1.568000000    -3.617000000
C    -0.529000000    -0.725000000    -1.660000000
H    -1.503000000    -0.298000000    -1.884000000
C     0.191000000    -0.455000000    -0.446000000
C    -0.508000000     0.104000000     0.784000000
H     0.152000000    -0.169000000     1.609000000
H    -0.559000000     1.173000000     0.568000000
H    -1.508000000    -0.307000000     0.937000000
C     1.512000000    -0.775000000    -0.392000000
H     2.049000000    -0.480000000     0.507000000
C     2.180000000    -1.373000000    -1.473000000
H     3.267000000    -1.386000000    -1.471000000
C     1.433000000    -1.713000000    -2.619000000
C     2.203000000    -2.024000000    -3.896000000
O     3.308000000    -2.562000000    -3.787000000
O     1.623000000    -1.822000000    -4.954000000
O     2.922000000     3.515000000    -5.357000000
H     2.069000000     3.125000000    -5.546000000
H     3.263000000     3.001000000    -4.624000000
O     2.836000000    -2.031000000    -8.494000000
H     1.953000000    -1.754000000    -8.737000000
H     2.710000000    -2.582000000    -7.722000000
O     2.802000000     0.915000000    -8.298000000
H     2.376000000     0.570000000    -7.513000000
H     2.853000000     0.166000000    -8.891000000
O     6.324000000     0.504000000    -2.043000000
H     6.913000000    -0.209000000    -1.794000000
H     6.306000000     0.477000000    -3.000000000
O     0.634000000    -3.333000000    -6.738000000
H     0.253000000    -2.733000000    -7.379000000
H     0.984000000    -2.762000000    -6.055000000
O     1.340000000     0.570000000    -5.833000000
H     1.501000000    -0.370000000    -5.745000000
H     1.225000000     0.877000000    -4.934000000
O     5.171000000    -2.689000000    -9.351000000
H     5.292000000    -3.573000000    -9.005000000
H     4.244000000    -2.499000000    -9.202000000
O     6.353000000    -2.999000000    -6.614000000
H     5.535000000    -3.445000000    -6.835000000
H     6.608000000    -2.553000000    -7.422000000
O    -1.335000000    -5.496000000    -7.557000000
H    -1.161000000    -6.427000000    -7.416000000
H    -0.592000000    -5.049000000    -7.150000000
O     1.216000000     1.689000000    -2.529000000
H     0.683000000     1.009000000    -2.117000000
H     2.109000000     1.499000000    -2.243000000
O     3.372000000    -4.182000000    -6.189000000
H     2.582000000    -4.358000000    -6.700000000
H     3.120000000    -3.475000000    -5.594000000
O     5.480000000    -4.065000000    -3.764000000
H     4.626000000    -3.633000000    -3.733000000
H     5.390000000    -4.724000000    -4.453000000
O     1.243000000    -8.579000000    -4.282000000
H     1.310000000    -7.767000000    -3.781000000
H     2.143000000    -8.900000000    -4.340000000
O     3.748000000    -6.718000000    -4.740000000
H     3.544000000    -6.032000000    -5.375000000
H     3.587000000    -6.312000000    -3.889000000
O     4.727000000     2.739000000    -7.481000000
H     4.227000000     3.228000000    -6.827000000
H     4.121000000     2.065000000    -7.791000000
O     3.961000000     1.305000000    -3.021000000
H     3.951000000     0.961000000    -3.914000000
H     4.676000000     0.835000000    -2.592000000
O     8.293000000    -3.924000000    -4.917000000
H     8.139000000    -3.527000000    -4.059000000
H     7.620000000    -3.544000000    -5.481000000
O     5.583000000    -0.967000000    -4.277000000
H     6.008000000    -1.714000000    -4.698000000
H     4.766000000    -1.321000000    -3.928000000
O     0.183000000    -1.640000000    -9.170000000
H    -0.446000000    -0.924000000    -9.084000000
H    -0.089000000    -2.104000000    -9.961000000
