218
-1493.35805
C     2.253000000    -4.973000000     0.239000000
H     1.199000000    -5.216000000     0.346000000
C     2.727000000    -4.059000000     1.135000000
C     4.021000000    -3.465000000     1.009000000
H     4.328000000    -2.771000000     1.788000000
C     1.730000000    -3.425000000     2.225000000
O     0.731000000    -4.413000000     2.691000000
H     1.157000000    -2.632000000     1.723000000
O     2.493000000    -2.955000000     3.346000000
C     2.091000000    -1.764000000     3.871000000
C     2.875000000    -0.682000000     3.570000000
H     3.832000000    -0.932000000     3.118000000
C     2.544000000     0.648000000     3.863000000
O     3.331000000     1.672000000     3.286000000
C     1.345000000     0.874000000     4.618000000
C     0.860000000     2.273000000     4.960000000
H     0.300000000     2.204000000     5.895000000
C    -0.029000000     2.818000000     3.842000000
C    -1.429000000     2.739000000     3.978000000
H    -1.900000000     2.271000000     4.838000000
H     1.763000000     2.849000000     5.174000000
C     0.519000000    -0.218000000     5.037000000
H    -0.368000000     0.052000000     5.604000000
C     0.855000000    -1.527000000     4.578000000
C     0.010000000    -2.725000000     4.962000000
H    -0.589000000    -2.306000000     5.772000000
H     0.602000000    -3.532000000     5.400000000
C    -0.956000000    -3.039000000     3.818000000
C    -2.155000000    -2.351000000     3.767000000
H    -2.469000000    -1.710000000     4.586000000
C    -0.566000000    -3.910000000     2.778000000
C    -1.353000000    -4.049000000     1.661000000
H    -0.997000000    -4.601000000     0.796000000
C    -2.572000000    -3.399000000     1.617000000
O    -3.292000000    -3.559000000     0.445000000
C    -3.297000000    -2.437000000    -0.408000000
C    -3.227000000    -2.955000000    -1.817000000
C    -3.932000000    -2.214000000    -2.803000000
H    -4.600000000    -1.391000000    -2.560000000
C    -2.334000000    -3.986000000    -2.196000000
H    -1.816000000    -4.558000000    -1.430000000
O    -4.512000000    -1.648000000    -0.163000000
H    -2.369000000    -1.870000000    -0.239000000
C    -3.089000000    -2.577000000     2.716000000
C    -4.419000000    -1.894000000     2.740000000
H    -4.726000000    -1.689000000     3.768000000
H    -5.183000000    -2.535000000     2.294000000
C    -4.359000000    -0.544000000     2.059000000
C    -4.216000000     0.606000000     2.833000000
H    -4.108000000     0.509000000     3.911000000
C    -4.394000000    -0.464000000     0.656000000
C    -4.419000000     0.743000000     0.038000000
H    -4.584000000     0.773000000    -1.036000000
C    -4.216000000     1.913000000     0.786000000
O    -3.976000000     3.068000000     0.028000000
C    -2.589000000     3.463000000    -0.137000000
C    -2.408000000     3.939000000    -1.583000000
C    -2.730000000     3.134000000    -2.661000000
H    -3.379000000     2.266000000    -2.579000000
C    -1.570000000     5.036000000    -1.848000000
H    -1.239000000     5.575000000    -0.964000000
O    -2.307000000     4.497000000     0.756000000
H    -1.957000000     2.578000000     0.026000000
C    -4.043000000     1.823000000     2.180000000
C    -3.696000000     3.110000000     2.969000000
H    -4.068000000     2.976000000     3.987000000
H    -4.278000000     3.963000000     2.614000000
C    -2.185000000     3.365000000     2.953000000
C    -1.560000000     4.048000000     1.885000000
C    -0.177000000     4.092000000     1.782000000
H     0.164000000     4.703000000     0.950000000
C     0.567000000     3.466000000     2.754000000
O     1.932000000     3.480000000     2.659000000
C     2.698000000     2.403000000     2.177000000
H     1.976000000     1.685000000     1.759000000
C     3.668000000     2.699000000     0.991000000
C     4.628000000     1.735000000     0.616000000
H     4.783000000     0.858000000     1.240000000
C     3.359000000     3.843000000     0.202000000
H     2.651000000     4.602000000     0.525000000
C     4.045000000     3.973000000    -0.964000000
O     3.943000000     5.053000000    -1.836000000
C     5.012000000     3.072000000    -1.342000000
H     5.505000000     3.173000000    -2.306000000
C     5.393000000     1.989000000    -0.511000000
O     6.190000000     1.095000000    -0.958000000
C     6.648000000     0.021000000    -0.227000000
C     6.210000000    -1.244000000    -0.514000000
H     5.558000000    -1.333000000    -1.379000000
C     7.599000000     0.243000000     0.763000000
H     8.025000000     1.230000000     0.922000000
C     7.931000000    -0.861000000     1.529000000
H     8.628000000    -0.756000000     2.357000000
C     7.474000000    -2.113000000     1.294000000
H     7.826000000    -2.938000000     1.907000000
C     6.617000000    -2.312000000     0.293000000
O     6.153000000    -3.602000000    -0.040000000
C     4.846000000    -3.962000000     0.024000000
C     4.354000000    -4.895000000    -0.874000000
H     5.038000000    -5.284000000    -1.625000000
C     3.118000000    -5.423000000    -0.735000000
O     2.669000000    -6.390000000    -1.590000000
C     1.403000000    -6.654000000    -1.967000000
C     0.738000000    -5.804000000    -2.874000000
H     1.239000000    -4.907000000    -3.226000000
C     0.718000000    -7.696000000    -1.354000000
H     1.262000000    -8.264000000    -0.603000000
C    -0.615000000    -7.988000000    -1.636000000
H    -1.106000000    -8.803000000    -1.111000000
C    -1.310000000    -7.142000000    -2.523000000
H    -2.320000000    -7.356000000    -2.865000000
C    -0.571000000    -6.058000000    -3.124000000
O    -1.207000000    -5.103000000    -3.927000000
C    -2.237000000    -4.330000000    -3.537000000
C    -2.913000000    -3.583000000    -4.537000000
H    -2.819000000    -3.844000000    -5.588000000
C    -3.812000000    -2.565000000    -4.148000000
O    -4.425000000    -1.827000000    -5.142000000
C    -4.715000000    -0.489000000    -5.016000000
C    -3.657000000     0.492000000    -5.093000000
H    -2.640000000     0.110000000    -5.051000000
C    -6.025000000    -0.006000000    -5.225000000
H    -6.798000000    -0.722000000    -5.495000000
C    -6.340000000     1.357000000    -5.119000000
H    -7.349000000     1.760000000    -5.130000000
C    -5.281000000     2.214000000    -4.977000000
H    -5.540000000     3.265000000    -4.873000000
C    -3.928000000     1.856000000    -5.030000000
O    -2.957000000     2.840000000    -5.083000000
C    -2.551000000     3.536000000    -3.968000000
C    -1.753000000     4.642000000    -4.228000000
H    -1.462000000     4.875000000    -5.249000000
C    -1.292000000     5.388000000    -3.150000000
O    -0.436000000     6.369000000    -3.426000000
C     0.681000000     6.589000000    -2.728000000
C     0.782000000     7.835000000    -2.073000000
H    -0.022000000     8.544000000    -2.253000000
C     1.939000000     8.157000000    -1.337000000
H     1.917000000     9.181000000    -0.972000000
C     3.017000000     7.199000000    -1.199000000
H     3.850000000     7.446000000    -0.546000000
C     2.918000000     5.970000000    -1.895000000
C     1.764000000     5.673000000    -2.596000000
H     1.678000000     4.675000000    -3.020000000
C     0.133000000    -0.883000000    -2.739000000
H    -0.546000000    -0.862000000    -3.587000000
C    -0.422000000    -0.507000000    -1.518000000
H    -1.469000000    -0.224000000    -1.448000000
C     0.332000000    -0.510000000    -0.329000000
C    -0.286000000    -0.056000000     0.934000000
H    -0.531000000    -0.959000000     1.498000000
H     0.283000000     0.590000000     1.606000000
H    -1.205000000     0.488000000     0.711000000
C     1.676000000    -0.910000000    -0.457000000
H     2.224000000    -0.931000000     0.481000000
C     2.233000000    -1.284000000    -1.650000000
H     3.290000000    -1.535000000    -1.695000000
C     1.481000000    -1.367000000    -2.807000000
C     2.107000000    -1.924000000    -4.047000000
O     3.322000000    -1.927000000    -4.107000000
O     1.396000000    -2.174000000    -4.961000000
O     0.236000000     1.561000000    -6.508000000
H     0.880000000     1.682000000    -5.810000000
H    -0.479000000     2.155000000    -6.279000000
O     1.229000000    -4.110000000    -8.516000000
H     0.945000000    -4.239000000    -7.611000000
H     1.086000000    -4.959000000    -8.935000000
O     2.061000000    -1.585000000    -8.507000000
H     2.050000000    -2.540000000    -8.451000000
H     1.321000000    -1.305000000    -7.970000000
O     7.419000000     0.288000000    -3.399000000
H     6.866000000    -0.427000000    -3.714000000
H     7.002000000     0.572000000    -2.586000000
O     0.675000000    -4.596000000    -5.917000000
H    -0.060000000    -4.587000000    -5.304000000
H     1.045000000    -3.715000000    -5.859000000
O     2.102000000     2.407000000    -4.174000000
H     2.815000000     1.824000000    -3.913000000
H     1.473000000     2.354000000    -3.454000000
O     4.729000000    -1.582000000    -7.632000000
H     4.981000000    -0.723000000    -7.293000000
H     3.789000000    -1.510000000    -7.793000000
O    -2.366000000    -1.629000000    -8.113000000
H    -1.577000000    -1.374000000    -7.634000000
H    -2.791000000    -0.800000000    -8.332000000
O    -0.123000000    -1.066000000    -6.807000000
H    -0.020000000    -0.169000000    -6.490000000
H     0.320000000    -1.604000000    -6.151000000
O     0.603000000     2.156000000    -2.051000000
H     0.173000000     1.332000000    -2.279000000
H     0.903000000     2.028000000    -1.151000000
O     3.773000000    -4.169000000    -5.657000000
H     3.372000000    -3.457000000    -5.158000000
H     4.424000000    -3.736000000    -6.210000000
O     3.562000000    -5.690000000    -8.117000000
H     2.926000000    -6.361000000    -8.366000000
H     3.113000000    -5.172000000    -7.448000000
O     5.416000000    -6.490000000    -5.254000000
H     4.662000000    -7.041000000    -5.041000000
H     5.060000000    -5.603000000    -5.295000000
O     2.402000000    -7.145000000    -5.258000000
H     1.715000000    -7.809000000    -5.196000000
H     1.953000000    -6.367000000    -5.590000000
O     2.247000000     1.708000000    -8.557000000
H     1.600000000     1.849000000    -7.866000000
H     1.904000000     0.969000000    -9.059000000
O     4.778000000     1.245000000    -7.168000000
H     4.023000000     1.634000000    -7.610000000
H     5.243000000     1.990000000    -6.788000000
O     4.113000000     0.736000000    -4.208000000
H     3.756000000    -0.152000000    -4.213000000
H     4.828000000     0.710000000    -4.844000000
O     5.879000000    -1.919000000    -3.700000000
H     6.088000000    -2.573000000    -4.367000000
H     4.923000000    -1.883000000    -3.690000000
O     6.550000000    -3.187000000    -5.877000000
H     6.261000000    -2.643000000    -6.610000000
H     7.403000000    -3.525000000    -6.150000000
