218
-1474.21635
C     1.253000000    -4.825000000    -0.053000000
H     0.214000000    -5.000000000    -0.319000000
C     1.721000000    -4.106000000     1.091000000
C     3.059000000    -3.839000000     1.192000000
H     3.388000000    -3.200000000     2.008000000
C     0.748000000    -3.538000000     2.072000000
O    -0.464000000    -4.328000000     2.281000000
H     0.457000000    -2.612000000     1.554000000
O     1.316000000    -3.277000000     3.375000000
C     1.038000000    -2.006000000     3.870000000
C     2.078000000    -1.069000000     3.769000000
H     3.004000000    -1.225000000     3.221000000
C     1.772000000     0.214000000     4.275000000
O     2.787000000     1.106000000     4.026000000
C     0.562000000     0.566000000     4.780000000
C     0.161000000     1.976000000     5.201000000
H    -0.620000000     1.921000000     5.962000000
C    -0.237000000     2.728000000     3.982000000
C    -1.613000000     2.849000000     3.794000000
H    -2.282000000     2.354000000     4.493000000
H     1.017000000     2.444000000     5.691000000
C    -0.499000000    -0.339000000     4.750000000
H    -1.511000000    -0.004000000     4.962000000
C    -0.232000000    -1.682000000     4.404000000
C    -1.379000000    -2.603000000     4.559000000
H    -2.098000000    -2.337000000     5.336000000
H    -1.085000000    -3.613000000     4.854000000
C    -2.076000000    -2.801000000     3.272000000
C    -3.266000000    -2.074000000     3.102000000
H    -3.615000000    -1.431000000     3.906000000
C    -1.675000000    -3.662000000     2.261000000
C    -2.372000000    -3.657000000     1.025000000
H    -1.834000000    -4.145000000     0.217000000
C    -3.396000000    -2.786000000     0.816000000
O    -3.928000000    -2.799000000    -0.433000000
C    -3.612000000    -1.708000000    -1.351000000
C    -3.364000000    -2.118000000    -2.813000000
C    -3.577000000    -1.249000000    -3.888000000
H    -3.987000000    -0.262000000    -3.690000000
C    -2.895000000    -3.414000000    -3.022000000
H    -2.874000000    -4.130000000    -2.205000000
O    -4.743000000    -0.800000000    -1.222000000
H    -2.698000000    -1.173000000    -1.056000000
C    -3.929000000    -2.059000000     1.903000000
C    -5.174000000    -1.267000000     1.612000000
H    -5.635000000    -1.182000000     2.599000000
H    -5.861000000    -1.807000000     0.957000000
C    -4.830000000     0.067000000     1.003000000
C    -4.593000000     1.191000000     1.820000000
H    -4.648000000     1.024000000     2.893000000
C    -4.581000000     0.208000000    -0.374000000
C    -4.149000000     1.425000000    -0.850000000
H    -4.019000000     1.562000000    -1.921000000
C    -3.844000000     2.507000000     0.027000000
O    -3.179000000     3.551000000    -0.553000000
C    -1.754000000     3.688000000    -0.357000000
C    -1.096000000     3.883000000    -1.761000000
C    -1.818000000     3.659000000    -2.952000000
H    -2.825000000     3.254000000    -2.894000000
C     0.206000000     4.342000000    -1.875000000
H     0.869000000     4.347000000    -1.014000000
O    -1.619000000     4.732000000     0.643000000
H    -1.374000000     2.749000000     0.071000000
C    -4.006000000     2.376000000     1.388000000
C    -3.539000000     3.476000000     2.356000000
H    -4.051000000     3.243000000     3.292000000
H    -3.849000000     4.469000000     2.023000000
C    -2.054000000     3.477000000     2.711000000
C    -1.169000000     4.137000000     1.884000000
C     0.177000000     4.089000000     2.038000000
H     0.847000000     4.528000000     1.303000000
C     0.669000000     3.444000000     3.134000000
O     2.046000000     3.240000000     3.234000000
C     2.595000000     1.973000000     2.874000000
H     2.025000000     1.430000000     2.105000000
C     3.908000000     2.114000000     2.197000000
C     4.902000000     1.140000000     2.267000000
H     4.819000000     0.350000000     3.009000000
C     4.133000000     3.261000000     1.345000000
H     3.395000000     4.058000000     1.383000000
C     5.337000000     3.335000000     0.603000000
O     5.644000000     4.441000000    -0.147000000
C     6.243000000     2.320000000     0.677000000
H     7.195000000     2.531000000     0.197000000
C     6.043000000     1.198000000     1.495000000
O     7.001000000     0.261000000     1.554000000
C     6.726000000    -1.059000000     1.914000000
C     6.086000000    -1.867000000     0.985000000
H     5.833000000    -1.443000000     0.017000000
C     6.962000000    -1.539000000     3.186000000
H     7.497000000    -0.860000000     3.845000000
C     6.628000000    -2.889000000     3.514000000
H     6.880000000    -3.283000000     4.496000000
C     6.084000000    -3.664000000     2.510000000
H     5.969000000    -4.732000000     2.682000000
C     5.927000000    -3.219000000     1.219000000
O     5.372000000    -4.024000000     0.253000000
C     3.977000000    -4.304000000     0.215000000
C     3.514000000    -4.972000000    -0.891000000
H     4.089000000    -5.275000000    -1.763000000
C     2.155000000    -5.192000000    -1.037000000
O     1.694000000    -5.781000000    -2.207000000
C     0.478000000    -6.269000000    -2.419000000
C    -0.270000000    -5.565000000    -3.327000000
H     0.105000000    -4.702000000    -3.872000000
C     0.012000000    -7.390000000    -1.825000000
H     0.542000000    -7.932000000    -1.046000000
C    -1.303000000    -7.771000000    -2.085000000
H    -1.690000000    -8.639000000    -1.559000000
C    -2.107000000    -7.014000000    -2.950000000
H    -3.159000000    -7.280000000    -3.021000000
C    -1.594000000    -5.868000000    -3.575000000
O    -2.293000000    -5.174000000    -4.636000000
C    -2.661000000    -3.860000000    -4.388000000
C    -2.850000000    -2.954000000    -5.436000000
H    -2.814000000    -3.360000000    -6.443000000
C    -3.350000000    -1.645000000    -5.164000000
O    -3.445000000    -0.656000000    -6.203000000
C    -3.712000000     0.675000000    -6.003000000
C    -2.670000000     1.537000000    -5.577000000
H    -1.646000000     1.180000000    -5.502000000
C    -4.984000000     1.179000000    -6.138000000
H    -5.814000000     0.581000000    -6.505000000
C    -5.306000000     2.499000000    -5.813000000
H    -6.350000000     2.787000000    -5.909000000
C    -4.253000000     3.324000000    -5.564000000
H    -4.442000000     4.371000000    -5.343000000
C    -2.969000000     2.854000000    -5.428000000
O    -2.020000000     3.816000000    -5.323000000
C    -1.217000000     3.956000000    -4.176000000
C     0.045000000     4.637000000    -4.263000000
H     0.513000000     4.897000000    -5.209000000
C     0.785000000     4.637000000    -3.108000000
O     2.055000000     5.210000000    -3.151000000
C     2.712000000     5.562000000    -2.037000000
C     2.681000000     6.896000000    -1.609000000
H     2.014000000     7.574000000    -2.135000000
C     3.483000000     7.378000000    -0.562000000
H     3.215000000     8.330000000    -0.112000000
C     4.461000000     6.552000000    -0.104000000
H     5.156000000     6.961000000     0.624000000
C     4.591000000     5.278000000    -0.606000000
C     3.689000000     4.738000000    -1.521000000
H     3.863000000     3.716000000    -1.848000000
C     0.241000000    -0.934000000    -3.059000000
H    -0.287000000    -0.966000000    -4.008000000
C    -0.342000000    -0.392000000    -1.913000000
H    -1.374000000    -0.053000000    -1.953000000
C     0.371000000    -0.424000000    -0.736000000
C    -0.280000000     0.188000000     0.464000000
H    -0.538000000    -0.449000000     1.312000000
H     0.383000000     1.004000000     0.760000000
H    -1.216000000     0.689000000     0.206000000
C     1.707000000    -0.891000000    -0.677000000
H     2.318000000    -0.812000000     0.218000000
C     2.302000000    -1.389000000    -1.854000000
H     3.346000000    -1.660000000    -1.718000000
C     1.580000000    -1.402000000    -3.065000000
C     2.162000000    -2.085000000    -4.307000000
O     3.363000000    -2.089000000    -4.475000000
O     1.380000000    -2.333000000    -5.241000000
O     6.647000000    -4.457000000    -3.949000000
H     7.411000000    -4.891000000    -4.328000000
H     6.081000000    -5.174000000    -3.663000000
O     3.828000000     0.798000000    -4.582000000
H     3.316000000     0.789000000    -5.391000000
H     4.181000000    -0.089000000    -4.512000000
O    -0.920000000    -2.627000000    -8.314000000
H    -0.445000000    -2.762000000    -9.134000000
H    -1.775000000    -3.032000000    -8.463000000
O     2.861000000    -3.516000000    -7.312000000
H     2.387000000    -3.010000000    -6.653000000
H     3.783000000    -3.312000000    -7.153000000
O     5.368000000    -3.193000000    -5.960000000
H     4.781000000    -2.755000000    -5.344000000
H     5.760000000    -3.905000000    -5.454000000
O     0.499000000    -0.741000000    -7.021000000
H     0.152000000    -1.463000000    -7.544000000
H     0.957000000    -1.168000000    -6.297000000
O     2.628000000    -6.906000000    -6.478000000
H     2.262000000    -6.042000000    -6.669000000
H     3.469000000    -6.915000000    -6.934000000
O    -1.553000000    -6.425000000    -7.005000000
H    -2.140000000    -6.278000000    -6.263000000
H    -0.959000000    -5.675000000    -6.993000000
O     5.957000000    -2.014000000    -3.139000000
H     5.011000000    -1.979000000    -3.280000000
H     6.222000000    -2.857000000    -3.507000000
O     4.724000000     3.609000000    -4.961000000
H     4.903000000     2.690000000    -5.158000000
H     3.773000000     3.650000000    -4.853000000
O     3.993000000     1.794000000    -8.830000000
H     3.275000000     1.904000000    -8.207000000
H     4.780000000     2.003000000    -8.327000000
O     2.233000000     1.448000000    -6.608000000
H     1.822000000     2.299000000    -6.458000000
H     1.503000000     0.829000000    -6.628000000
O     5.074000000     1.252000000    -2.113000000
H     4.286000000     1.229000000    -1.570000000
H     4.746000000     1.352000000    -3.006000000
O    -0.102000000    -4.212000000    -6.332000000
H    -0.438000000    -3.492000000    -6.865000000
H     0.604000000    -3.820000000    -5.818000000
O     3.079000000    -8.137000000    -3.316000000
H     2.544000000    -8.856000000    -2.979000000
H     2.706000000    -7.353000000    -2.913000000
O     2.101000000    -0.080000000    -9.362000000
H     1.405000000    -0.153000000    -8.710000000
H     2.893000000     0.087000000    -8.850000000
O     2.643000000    -4.020000000   -10.006000000
H     2.611000000    -3.998000000    -9.049000000
H     1.969000000    -3.399000000   -10.282000000
O     8.098000000    -1.310000000    -1.672000000
H     8.151000000    -0.374000000    -1.864000000
H     7.322000000    -1.608000000    -2.147000000
O     2.093000000     1.832000000    -2.411000000
H     1.312000000     1.280000000    -2.371000000
H     2.651000000     1.409000000    -3.063000000
