218
-1475.04127
C     2.449000000    -3.026000000     1.952000000
H     1.467000000    -3.466000000     1.798000000
C     2.760000000    -2.061000000     2.905000000
C     4.105000000    -1.735000000     3.083000000
H     4.382000000    -1.058000000     3.887000000
C     1.634000000    -1.384000000     3.733000000
O     0.789000000    -2.287000000     4.289000000
H     1.054000000    -0.793000000     3.009000000
O     2.130000000    -0.510000000     4.736000000
C     1.622000000     0.761000000     4.642000000
C     2.299000000     1.647000000     3.821000000
H     3.236000000     1.375000000     3.342000000
C     1.749000000     2.813000000     3.382000000
O     2.456000000     3.684000000     2.483000000
C     0.448000000     3.165000000     3.802000000
C    -0.099000000     4.560000000     3.361000000
H    -0.746000000     5.052000000     4.091000000
C    -0.865000000     4.397000000     2.034000000
C    -2.231000000     4.178000000     1.976000000
H    -2.783000000     4.246000000     2.910000000
H     0.721000000     5.235000000     3.107000000
C    -0.250000000     2.241000000     4.534000000
H    -1.260000000     2.484000000     4.852000000
C     0.329000000     1.019000000     4.994000000
C    -0.488000000    -0.080000000     5.662000000
H    -1.214000000     0.508000000     6.227000000
H     0.044000000    -0.649000000     6.428000000
C    -1.188000000    -0.939000000     4.745000000
C    -2.479000000    -0.639000000     4.363000000
H    -3.012000000     0.250000000     4.691000000
C    -0.550000000    -2.065000000     4.081000000
C    -1.193000000    -2.839000000     3.160000000
H    -0.658000000    -3.651000000     2.672000000
C    -2.541000000    -2.594000000     2.886000000
O    -3.112000000    -3.411000000     1.870000000
C    -3.244000000    -2.755000000     0.570000000
C    -2.899000000    -3.672000000    -0.564000000
C    -3.662000000    -3.589000000    -1.781000000
H    -4.393000000    -2.795000000    -1.917000000
C    -1.902000000    -4.718000000    -0.420000000
H    -1.463000000    -4.810000000     0.570000000
O    -4.607000000    -2.197000000     0.506000000
H    -2.464000000    -1.978000000     0.573000000
C    -3.186000000    -1.482000000     3.470000000
C    -4.572000000    -1.136000000     3.022000000
H    -5.084000000    -0.603000000     3.826000000
H    -5.103000000    -2.077000000     2.866000000
C    -4.597000000    -0.248000000     1.832000000
C    -4.474000000     1.201000000     1.964000000
H    -4.500000000     1.615000000     2.969000000
C    -4.620000000    -0.860000000     0.547000000
C    -4.570000000    -0.090000000    -0.603000000
H    -4.467000000    -0.484000000    -1.611000000
C    -4.518000000     1.304000000    -0.437000000
O    -4.347000000     2.001000000    -1.640000000
C    -2.958000000     2.303000000    -1.886000000
C    -2.535000000     1.973000000    -3.297000000
C    -3.358000000     1.188000000    -4.047000000
H    -4.317000000     0.835000000    -3.674000000
C    -1.265000000     2.203000000    -3.656000000
H    -0.557000000     2.671000000    -2.976000000
O    -2.758000000     3.710000000    -1.647000000
H    -2.387000000     1.794000000    -1.095000000
C    -4.426000000     1.980000000     0.797000000
C    -4.323000000     3.508000000     0.823000000
H    -4.862000000     3.881000000     1.696000000
H    -4.906000000     3.950000000     0.012000000
C    -2.917000000     4.024000000     0.742000000
C    -2.170000000     4.033000000    -0.452000000
C    -0.811000000     4.355000000    -0.360000000
H    -0.159000000     4.345000000    -1.230000000
C    -0.150000000     4.413000000     0.859000000
O     1.129000000     4.683000000     0.776000000
C     2.039000000     3.563000000     1.105000000
H     1.488000000     2.620000000     0.973000000
C     3.220000000     3.369000000     0.137000000
C     4.405000000     2.844000000     0.684000000
H     4.463000000     2.707000000     1.761000000
C     3.052000000     3.767000000    -1.186000000
H     2.104000000     4.150000000    -1.556000000
C     4.185000000     3.704000000    -1.973000000
O     4.212000000     4.162000000    -3.277000000
C     5.368000000     3.208000000    -1.476000000
H     6.305000000     3.238000000    -2.028000000
C     5.497000000     2.725000000    -0.147000000
O     6.706000000     2.286000000     0.208000000
C     6.994000000     1.443000000     1.287000000
C     6.339000000     0.241000000     1.469000000
H     5.551000000    -0.034000000     0.773000000
C     8.223000000     1.744000000     1.888000000
H     8.615000000     2.679000000     1.496000000
C     8.715000000     0.917000000     2.907000000
H     9.604000000     1.131000000     3.494000000
C     8.048000000    -0.260000000     3.178000000
H     8.359000000    -0.947000000     3.962000000
C     6.859000000    -0.613000000     2.441000000
O     6.335000000    -1.854000000     2.503000000
C     5.065000000    -2.161000000     2.227000000
C     4.725000000    -2.973000000     1.146000000
H     5.458000000    -3.194000000     0.374000000
C     3.424000000    -3.503000000     1.033000000
O     3.147000000    -4.346000000     0.028000000
C     2.330000000    -5.520000000     0.121000000
C     1.221000000    -5.537000000    -0.699000000
H     0.943000000    -4.674000000    -1.298000000
C     2.675000000    -6.682000000     0.896000000
H     3.540000000    -6.657000000     1.554000000
C     1.863000000    -7.812000000     0.766000000
H     2.160000000    -8.651000000     1.389000000
C     0.683000000    -7.774000000     0.023000000
H     0.116000000    -8.700000000    -0.011000000
C     0.397000000    -6.647000000    -0.763000000
O    -0.760000000    -6.622000000    -1.503000000
C    -1.710000000    -5.619000000    -1.477000000
C    -2.445000000    -5.468000000    -2.621000000
H    -2.398000000    -6.167000000    -3.453000000
C    -3.409000000    -4.481000000    -2.817000000
O    -4.103000000    -4.380000000    -4.020000000
C    -4.683000000    -3.257000000    -4.423000000
C    -3.922000000    -2.184000000    -4.885000000
H    -2.840000000    -2.233000000    -4.791000000
C    -6.042000000    -3.182000000    -4.499000000
H    -6.661000000    -4.011000000    -4.167000000
C    -6.665000000    -2.182000000    -5.225000000
H    -7.739000000    -2.209000000    -5.388000000
C    -5.899000000    -1.140000000    -5.696000000
H    -6.392000000    -0.240000000    -6.054000000
C    -4.523000000    -1.112000000    -5.466000000
O    -3.696000000    -0.104000000    -6.053000000
C    -2.953000000     0.729000000    -5.268000000
C    -1.668000000     0.997000000    -5.758000000
H    -1.286000000     0.538000000    -6.665000000
C    -0.827000000     1.771000000    -4.929000000
O     0.542000000     1.894000000    -5.188000000
C     1.221000000     3.061000000    -4.965000000
C     0.834000000     4.193000000    -5.672000000
H    -0.022000000     4.081000000    -6.333000000
C     1.569000000     5.364000000    -5.533000000
H     1.328000000     6.240000000    -6.130000000
C     2.708000000     5.342000000    -4.683000000
H     3.405000000     6.175000000    -4.693000000
C     3.001000000     4.228000000    -3.922000000
C     2.298000000     3.046000000    -4.115000000
H     2.633000000     2.102000000    -3.693000000
C     1.401000000    -0.655000000    -2.977000000
H     1.000000000    -0.983000000    -3.933000000
C     0.497000000    -0.497000000    -1.885000000
H    -0.569000000    -0.665000000    -2.018000000
C     0.961000000     0.050000000    -0.724000000
C     0.000000000     0.418000000     0.451000000
H    -0.539000000     1.351000000     0.275000000
H    -0.730000000    -0.334000000     0.757000000
H     0.617000000     0.594000000     1.334000000
C     2.334000000     0.140000000    -0.506000000
H     2.724000000     0.393000000     0.477000000
C     3.259000000    -0.077000000    -1.598000000
H     4.321000000    -0.043000000    -1.369000000
C     2.773000000    -0.514000000    -2.844000000
C     3.751000000    -0.708000000    -3.995000000
O     4.875000000    -0.374000000    -3.805000000
O     3.349000000    -1.062000000    -5.108000000
O     7.188000000    -4.593000000    -6.996000000
H     6.811000000    -3.857000000    -7.478000000
H     8.073000000    -4.304000000    -6.772000000
O     1.340000000    -2.032000000    -6.761000000
H     2.071000000    -1.703000000    -6.238000000
H     1.429000000    -1.589000000    -7.604000000
O     6.480000000    -4.554000000    -3.981000000
H     5.594000000    -4.513000000    -4.341000000
H     7.042000000    -4.246000000    -4.693000000
O     8.562000000     1.075000000    -1.993000000
H     8.288000000     0.536000000    -1.251000000
H     9.098000000     1.766000000    -1.603000000
O     3.823000000    -5.578000000    -3.016000000
H     3.841000000    -5.074000000    -3.829000000
H     3.338000000    -5.027000000    -2.402000000
O     8.162000000    -2.424000000    -5.082000000
H     7.462000000    -2.148000000    -5.674000000
H     8.004000000    -1.930000000    -4.278000000
O     5.766000000    -2.050000000    -6.549000000
H     5.151000000    -2.103000000    -7.281000000
H     5.364000000    -1.426000000    -5.944000000
O    -0.125000000    -3.944000000    -5.615000000
H     0.467000000    -3.240000000    -5.880000000
H     0.402000000    -4.739000000    -5.684000000
O     6.793000000    -1.264000000    -2.257000000
H     7.279000000    -0.440000000    -2.307000000
H     6.003000000    -1.108000000    -2.775000000
O     4.780000000     1.844000000    -9.276000000
H     4.131000000     2.084000000    -9.937000000
H     4.261000000     1.608000000    -8.506000000
O     7.038000000     0.614000000    -7.955000000
H     6.540000000     1.347000000    -8.318000000
H     6.376000000     0.047000000    -7.560000000
O     3.845000000     4.516000000    -7.653000000
H     4.084000000     3.590000000    -7.702000000
H     3.042000000     4.528000000    -7.132000000
O     3.893000000    -1.238000000    -8.620000000
H     4.118000000    -1.663000000    -9.447000000
H     3.015000000    -0.885000000    -8.763000000
O     3.930000000     1.542000000    -6.669000000
H     3.413000000     0.909000000    -6.171000000
H     4.755000000     1.609000000    -6.188000000
O     3.884000000    -3.867000000    -5.061000000
H     3.785000000    -2.928000000    -5.214000000
H     3.764000000    -4.265000000    -5.923000000
O     6.890000000     4.531000000    -5.005000000
H     6.297000000     3.825000000    -4.749000000
H     6.479000000     5.325000000    -4.664000000
O     9.489000000     1.120000000    -4.666000000
H     8.975000000     1.127000000    -3.858000000
H     9.543000000     2.041000000    -4.923000000
O     7.863000000    -3.703000000    -1.827000000
H     7.482000000    -2.866000000    -2.091000000
H     7.561000000    -4.323000000    -2.490000000
O     6.318000000     1.823000000    -5.233000000
H     7.026000000     1.363000000    -5.683000000
H     6.091000000     1.253000000    -4.498000000
