218
-1441.85481
C     2.344000000    -3.850000000     2.955000000
H     1.335000000    -4.159000000     3.213000000
C     2.685000000    -2.469000000     3.069000000
C     3.909000000    -1.996000000     2.699000000
H     4.102000000    -0.943000000     2.886000000
C     1.611000000    -1.455000000     3.554000000
O     0.551000000    -2.215000000     4.271000000
H     1.159000000    -1.063000000     2.631000000
O     2.162000000    -0.428000000     4.396000000
C     1.633000000     0.794000000     4.439000000
C     2.311000000     1.664000000     3.696000000
H     3.338000000     1.476000000     3.391000000
C     1.781000000     2.848000000     3.334000000
O     2.564000000     3.478000000     2.407000000
C     0.557000000     3.249000000     3.682000000
C     0.083000000     4.675000000     3.135000000
H    -0.672000000     5.031000000     3.840000000
C    -0.658000000     4.531000000     1.764000000
C    -2.031000000     4.257000000     1.733000000
H    -2.586000000     4.267000000     2.668000000
H     0.921000000     5.372000000     3.069000000
C    -0.158000000     2.418000000     4.567000000
H    -1.123000000     2.753000000     4.937000000
C     0.328000000     1.099000000     4.852000000
C    -0.565000000     0.155000000     5.572000000
H    -1.145000000     0.644000000     6.358000000
H    -0.034000000    -0.500000000     6.266000000
C    -1.309000000    -0.731000000     4.571000000
C    -2.582000000    -0.324000000     4.101000000
H    -2.960000000     0.638000000     4.440000000
C    -0.786000000    -1.912000000     4.065000000
C    -1.548000000    -2.745000000     3.238000000
H    -1.111000000    -3.632000000     2.786000000
C    -2.863000000    -2.406000000     2.807000000
O    -3.478000000    -3.121000000     1.836000000
C    -3.466000000    -2.592000000     0.506000000
C    -2.912000000    -3.563000000    -0.603000000
C    -3.544000000    -3.561000000    -1.837000000
H    -4.308000000    -2.813000000    -2.035000000
C    -1.796000000    -4.388000000    -0.381000000
H    -1.352000000    -4.410000000     0.610000000
O    -4.744000000    -1.936000000     0.204000000
H    -2.639000000    -1.867000000     0.481000000
C    -3.368000000    -1.155000000     3.269000000
C    -4.708000000    -0.618000000     2.816000000
H    -5.143000000    -0.002000000     3.605000000
H    -5.406000000    -1.458000000     2.848000000
C    -4.703000000     0.195000000     1.507000000
C    -4.595000000     1.565000000     1.569000000
H    -4.534000000     1.998000000     2.564000000
C    -4.649000000    -0.521000000     0.260000000
C    -4.579000000     0.266000000    -0.895000000
H    -4.475000000    -0.201000000    -1.871000000
C    -4.373000000     1.654000000    -0.803000000
O    -4.032000000     2.336000000    -1.950000000
C    -2.704000000     2.599000000    -2.227000000
C    -2.363000000     2.218000000    -3.640000000
C    -3.033000000     1.218000000    -4.427000000
H    -3.791000000     0.614000000    -3.935000000
C    -1.273000000     2.949000000    -4.207000000
H    -0.640000000     3.668000000    -3.693000000
O    -2.456000000     3.980000000    -1.916000000
H    -2.083000000     1.942000000    -1.600000000
C    -4.462000000     2.297000000     0.409000000
C    -4.199000000     3.770000000     0.544000000
H    -4.625000000     4.140000000     1.480000000
H    -4.684000000     4.318000000    -0.266000000
C    -2.698000000     4.122000000     0.517000000
C    -1.925000000     4.237000000    -0.691000000
C    -0.558000000     4.420000000    -0.675000000
H    -0.039000000     4.605000000    -1.612000000
C     0.089000000     4.543000000     0.571000000
O     1.483000000     4.527000000     0.538000000
C     2.180000000     3.305000000     0.997000000
H     1.352000000     2.582000000     0.942000000
C     3.322000000     2.943000000    -0.009000000
C     4.570000000     2.599000000     0.531000000
H     4.689000000     2.607000000     1.612000000
C     3.141000000     2.933000000    -1.395000000
H     2.178000000     3.272000000    -1.768000000
C     4.221000000     2.792000000    -2.250000000
O     4.131000000     2.801000000    -3.595000000
C     5.437000000     2.392000000    -1.703000000
H     6.311000000     2.225000000    -2.328000000
C     5.634000000     2.290000000    -0.359000000
O     6.830000000     1.771000000     0.069000000
C     6.929000000     1.007000000     1.232000000
C     6.462000000    -0.321000000     1.019000000
H     5.964000000    -0.507000000     0.071000000
C     7.595000000     1.349000000     2.399000000
H     8.083000000     2.316000000     2.495000000
C     7.661000000     0.365000000     3.424000000
H     8.253000000     0.500000000     4.325000000
C     7.198000000    -0.943000000     3.199000000
H     7.557000000    -1.685000000     3.907000000
C     6.620000000    -1.322000000     1.931000000
O     6.056000000    -2.609000000     1.705000000
C     4.817000000    -2.978000000     2.086000000
C     4.539000000    -4.299000000     2.128000000
H     5.305000000    -5.052000000     1.963000000
C     3.265000000    -4.744000000     2.427000000
O     2.930000000    -6.061000000     2.423000000
C     1.895000000    -6.592000000     1.715000000
C     1.358000000    -6.048000000     0.512000000
H     1.826000000    -5.243000000    -0.048000000
C     1.105000000    -7.609000000     2.328000000
H     1.353000000    -8.020000000     3.303000000
C    -0.080000000    -8.027000000     1.692000000
H    -0.648000000    -8.805000000     2.197000000
C    -0.574000000    -7.409000000     0.495000000
H    -1.565000000    -7.583000000     0.083000000
C     0.166000000    -6.445000000    -0.013000000
O    -0.134000000    -5.909000000    -1.251000000
C    -1.258000000    -5.142000000    -1.404000000
C    -1.838000000    -5.013000000    -2.650000000
H    -1.283000000    -5.410000000    -3.496000000
C    -2.999000000    -4.308000000    -2.886000000
O    -3.399000000    -4.209000000    -4.171000000
C    -4.074000000    -3.160000000    -4.700000000
C    -3.350000000    -2.166000000    -5.367000000
H    -2.301000000    -2.315000000    -5.609000000
C    -5.469000000    -2.955000000    -4.386000000
H    -6.109000000    -3.638000000    -3.834000000
C    -6.072000000    -1.761000000    -4.886000000
H    -7.128000000    -1.553000000    -4.732000000
C    -5.337000000    -0.837000000    -5.631000000
H    -5.708000000     0.139000000    -5.933000000
C    -3.921000000    -0.958000000    -5.777000000
O    -3.107000000    -0.048000000    -6.409000000
C    -2.680000000     0.989000000    -5.734000000
C    -1.632000000     1.717000000    -6.305000000
H    -1.265000000     1.395000000    -7.276000000
C    -0.892000000     2.633000000    -5.553000000
O     0.164000000     3.350000000    -6.120000000
C     1.183000000     3.875000000    -5.395000000
C     1.336000000     5.306000000    -5.376000000
H     0.627000000     5.952000000    -5.887000000
C     2.458000000     5.801000000    -4.744000000
H     2.540000000     6.883000000    -4.809000000
C     3.389000000     5.009000000    -4.037000000
H     4.185000000     5.391000000    -3.403000000
C     3.239000000     3.606000000    -4.188000000
C     2.200000000     3.077000000    -4.935000000
H     2.072000000     2.004000000    -5.055000000
C    -0.172000000    -0.873000000    -2.788000000
H    -0.623000000    -1.437000000    -3.600000000
C    -0.777000000    -0.611000000    -1.564000000
H    -1.827000000    -0.847000000    -1.409000000
C    -0.065000000     0.069000000    -0.503000000
C    -0.772000000     0.619000000     0.768000000
H    -0.211000000     0.258000000     1.632000000
H    -0.751000000     1.710000000     0.743000000
H    -1.800000000     0.260000000     0.849000000
C     1.287000000     0.253000000    -0.639000000
H     1.842000000     0.743000000     0.157000000
C     1.904000000    -0.105000000    -1.820000000
H     2.955000000     0.156000000    -1.905000000
C     1.210000000    -0.547000000    -2.956000000
C     1.952000000    -0.974000000    -4.155000000
O     3.199000000    -0.915000000    -4.151000000
O     1.393000000    -1.529000000    -5.123000000
O     0.388000000    -3.636000000    -4.132000000
H     0.864000000    -2.881000000    -4.478000000
H    -0.182000000    -3.908000000    -4.851000000
O     4.119000000    -5.723000000    -1.757000000
H     3.504000000    -5.551000000    -2.470000000
H     4.198000000    -4.885000000    -1.301000000
O     6.387000000    -0.899000000    -2.352000000
H     7.084000000    -0.255000000    -2.229000000
H     6.844000000    -1.737000000    -2.422000000
O     7.087000000    -3.903000000    -4.489000000
H     7.730000000    -3.686000000    -5.164000000
H     6.249000000    -3.621000000    -4.856000000
O     4.661000000    -2.700000000    -5.475000000
H     4.709000000    -2.461000000    -6.401000000
H     4.165000000    -1.988000000    -5.070000000
O     0.472000000    -4.405000000    -8.337000000
H     1.019000000    -5.169000000    -8.520000000
H     0.358000000    -3.983000000    -9.189000000
O     1.808000000    -5.817000000    -3.696000000
H     1.172000000    -5.107000000    -3.779000000
H     2.316000000    -5.779000000    -4.507000000
O     3.341000000    -5.164000000    -5.761000000
H     3.690000000    -4.287000000    -5.599000000
H     4.114000000    -5.727000000    -5.792000000
O     3.983000000    -3.124000000    -1.605000000
H     4.124000000    -2.399000000    -2.214000000
H     3.210000000    -2.868000000    -1.102000000
O     2.149000000    -0.244000000    -7.534000000
H     2.254000000    -0.947000000    -8.175000000
H     2.053000000    -0.696000000    -6.696000000
O     3.372000000    -1.990000000    -9.524000000
H     3.032000000    -2.751000000    -9.995000000
H     4.322000000    -2.112000000    -9.526000000
O    -0.339000000    -2.422000000    -6.888000000
H     0.203000000    -1.799000000    -6.404000000
H     0.283000000    -3.068000000    -7.225000000
O     0.385000000     1.627000000    -9.294000000
H     0.265000000     0.832000000    -9.813000000
H     1.086000000     1.409000000    -8.680000000
O    -2.215000000    -2.450000000    -9.262000000
H    -1.648000000    -2.539000000    -8.496000000
H    -1.959000000    -1.615000000    -9.654000000
O     1.556000000    -2.783000000    -0.614000000
H     0.855000000    -3.094000000    -1.186000000
H     1.618000000    -1.846000000    -0.799000000
O     4.240000000     1.319000000    -7.863000000
H     4.814000000     1.037000000    -7.152000000
H     3.521000000     0.686000000    -7.856000000
O     7.941000000    -0.758000000    -5.901000000
H     7.255000000    -0.209000000    -5.522000000
H     8.533000000    -0.940000000    -5.172000000
O     6.783000000    -3.387000000    -0.869000000
H     7.093000000    -3.130000000    -0.001000000
H     5.968000000    -2.899000000    -0.986000000
O     5.695000000     0.394000000    -4.746000000
H     5.959000000     0.026000000    -3.903000000
H     4.747000000     0.262000000    -4.778000000
