218
-1452.13879
C     1.886000000    -3.970000000     1.175000000
H     0.846000000    -4.235000000     1.003000000
C     2.214000000    -3.173000000     2.246000000
C     3.618000000    -2.930000000     2.501000000
H     3.965000000    -2.290000000     3.309000000
C     1.189000000    -2.577000000     3.073000000
O     0.114000000    -3.409000000     3.468000000
H     0.769000000    -1.721000000     2.526000000
O     1.799000000    -2.041000000     4.291000000
C     1.538000000    -0.688000000     4.476000000
C     2.428000000     0.299000000     4.108000000
H     3.385000000    -0.005000000     3.690000000
C     2.039000000     1.636000000     4.034000000
O     2.829000000     2.512000000     3.330000000
C     0.746000000     2.018000000     4.450000000
C     0.242000000     3.456000000     4.451000000
H    -0.417000000     3.681000000     5.291000000
C    -0.429000000     3.770000000     3.144000000
C    -1.840000000     3.511000000     3.035000000
H    -2.411000000     3.139000000     3.881000000
H     1.084000000     4.151000000     4.453000000
C    -0.099000000     1.025000000     4.859000000
H    -1.119000000     1.281000000     5.133000000
C     0.252000000    -0.296000000     4.897000000
C    -0.768000000    -1.377000000     5.397000000
H    -1.377000000    -1.152000000     6.275000000
H    -0.179000000    -2.250000000     5.686000000
C    -1.666000000    -1.884000000     4.273000000
C    -2.964000000    -1.356000000     3.993000000
H    -3.359000000    -0.527000000     4.574000000
C    -1.210000000    -2.940000000     3.458000000
C    -1.933000000    -3.516000000     2.465000000
H    -1.612000000    -4.426000000     1.965000000
C    -3.170000000    -2.937000000     2.117000000
O    -3.782000000    -3.334000000     0.919000000
C    -3.672000000    -2.420000000    -0.170000000
C    -3.217000000    -3.137000000    -1.471000000
C    -3.385000000    -2.493000000    -2.698000000
H    -3.872000000    -1.522000000    -2.725000000
C    -2.603000000    -4.366000000    -1.488000000
H    -2.474000000    -4.831000000    -0.515000000
O    -4.811000000    -1.635000000    -0.324000000
H    -2.822000000    -1.750000000     0.027000000
C    -3.671000000    -1.874000000     2.917000000
C    -4.992000000    -1.252000000     2.577000000
H    -5.457000000    -0.773000000     3.441000000
H    -5.734000000    -1.896000000     2.101000000
C    -4.791000000    -0.141000000     1.616000000
C    -4.508000000     1.094000000     2.133000000
H    -4.243000000     1.283000000     3.170000000
C    -4.753000000    -0.350000000     0.220000000
C    -4.600000000     0.652000000    -0.652000000
H    -4.684000000     0.507000000    -1.726000000
C    -4.333000000     1.885000000    -0.127000000
O    -3.998000000     2.947000000    -0.975000000
C    -2.607000000     3.135000000    -1.224000000
C    -2.312000000     3.288000000    -2.704000000
C    -3.192000000     2.815000000    -3.669000000
H    -4.139000000     2.444000000    -3.286000000
C    -1.021000000     3.679000000    -3.101000000
H    -0.258000000     3.903000000    -2.360000000
O    -2.245000000     4.346000000    -0.499000000
H    -1.945000000     2.317000000    -0.905000000
C    -4.305000000     2.116000000     1.206000000
C    -3.966000000     3.466000000     1.725000000
H    -4.344000000     3.509000000     2.748000000
H    -4.357000000     4.266000000     1.094000000
C    -2.448000000     3.714000000     1.830000000
C    -1.757000000     4.181000000     0.736000000
C    -0.343000000     4.434000000     0.829000000
H     0.228000000     4.823000000    -0.011000000
C     0.278000000     4.117000000     2.036000000
O     1.701000000     4.184000000     2.044000000
C     2.432000000     2.891000000     1.998000000
H     1.774000000     2.057000000     1.713000000
C     3.649000000     2.934000000     1.014000000
C     4.562000000     1.905000000     1.052000000
H     4.384000000     1.060000000     1.713000000
C     3.746000000     3.868000000     0.015000000
H     3.032000000     4.688000000    -0.010000000
C     4.715000000     3.706000000    -1.011000000
O     4.762000000     4.570000000    -2.038000000
C     5.628000000     2.707000000    -0.929000000
H     6.329000000     2.572000000    -1.748000000
C     5.658000000     1.848000000     0.160000000
O     6.737000000     0.978000000     0.257000000
C     6.917000000     0.061000000     1.277000000
C     6.174000000    -1.102000000     1.203000000
H     5.404000000    -1.193000000     0.440000000
C     7.817000000     0.349000000     2.253000000
H     8.328000000     1.306000000     2.179000000
C     8.151000000    -0.614000000     3.208000000
H     8.927000000    -0.370000000     3.929000000
C     7.484000000    -1.833000000     3.073000000
H     7.770000000    -2.602000000     3.786000000
C     6.486000000    -2.100000000     2.142000000
O     5.878000000    -3.309000000     2.015000000
C     4.562000000    -3.461000000     1.738000000
C     4.267000000    -4.132000000     0.598000000
H     5.054000000    -4.337000000    -0.124000000
C     2.900000000    -4.470000000     0.375000000
O     2.724000000    -5.033000000    -0.875000000
C     1.717000000    -5.973000000    -1.106000000
C     0.589000000    -5.614000000    -1.799000000
H     0.437000000    -4.587000000    -2.123000000
C     1.889000000    -7.258000000    -0.662000000
H     2.772000000    -7.469000000    -0.064000000
C     0.982000000    -8.233000000    -0.971000000
H     1.202000000    -9.256000000    -0.676000000
C    -0.249000000    -7.897000000    -1.485000000
H    -1.071000000    -8.600000000    -1.590000000
C    -0.464000000    -6.539000000    -1.887000000
O    -1.591000000    -6.199000000    -2.645000000
C    -2.254000000    -4.998000000    -2.675000000
C    -2.435000000    -4.363000000    -3.851000000
H    -2.075000000    -4.901000000    -4.724000000
C    -2.932000000    -3.057000000    -3.859000000
O    -3.026000000    -2.390000000    -5.079000000
C    -3.764000000    -1.308000000    -5.374000000
C    -3.282000000     0.022000000    -5.498000000
H    -2.239000000     0.197000000    -5.247000000
C    -5.088000000    -1.633000000    -5.668000000
H    -5.338000000    -2.689000000    -5.614000000
C    -5.954000000    -0.590000000    -6.012000000
H    -6.984000000    -0.859000000    -6.231000000
C    -5.518000000     0.726000000    -6.139000000
H    -6.109000000     1.582000000    -6.453000000
C    -4.121000000     1.030000000    -5.848000000
O    -3.639000000     2.295000000    -5.999000000
C    -2.787000000     2.845000000    -5.025000000
C    -1.477000000     3.216000000    -5.388000000
H    -1.262000000     3.180000000    -6.453000000
C    -0.601000000     3.653000000    -4.413000000
O     0.752000000     3.799000000    -4.657000000
C     1.663000000     4.574000000    -3.979000000
C     1.354000000     5.896000000    -3.899000000
H     0.458000000     6.275000000    -4.383000000
C     2.247000000     6.791000000    -3.349000000
H     1.946000000     7.830000000    -3.453000000
C     3.436000000     6.354000000    -2.890000000
H     4.261000000     7.054000000    -2.785000000
C     3.661000000     4.988000000    -2.680000000
C     2.813000000     4.080000000    -3.325000000
H     2.922000000     3.004000000    -3.215000000
C    -0.055000000    -1.070000000    -2.070000000
H    -0.640000000    -1.113000000    -2.985000000
C    -0.515000000    -0.312000000    -0.991000000
H    -1.517000000     0.105000000    -1.063000000
C     0.372000000    -0.003000000     0.065000000
C    -0.292000000     0.688000000     1.196000000
H    -0.408000000     1.735000000     0.906000000
H    -1.287000000     0.247000000     1.279000000
H     0.318000000     0.580000000     2.096000000
C     1.559000000    -0.609000000     0.117000000
H     2.167000000    -0.512000000     1.012000000
C     1.986000000    -1.478000000    -0.869000000
H     2.988000000    -1.899000000    -0.868000000
C     1.228000000    -1.610000000    -2.049000000
C     1.786000000    -2.276000000    -3.282000000
O     2.999000000    -2.545000000    -3.504000000
O     0.907000000    -2.562000000    -4.083000000
O     5.855000000    -0.659000000    -6.427000000
H     5.470000000     0.179000000    -6.684000000
H     5.114000000    -1.265000000    -6.402000000
O     0.285000000    -2.497000000    -7.615000000
H     0.263000000    -2.656000000    -6.672000000
H    -0.002000000    -1.589000000    -7.712000000
O     7.528000000    -0.534000000    -1.989000000
H     6.759000000    -0.594000000    -2.555000000
H     7.286000000     0.114000000    -1.326000000
O     1.869000000     2.844000000    -7.654000000
H     1.593000000     2.542000000    -6.789000000
H     2.804000000     3.028000000    -7.557000000
O     1.082000000    -0.306000000    -5.551000000
H     0.411000000    -0.145000000    -6.215000000
H     0.755000000    -1.057000000    -5.056000000
O     6.291000000    -4.914000000    -7.725000000
H     7.235000000    -4.850000000    -7.870000000
H     6.202000000    -5.044000000    -6.781000000
O     2.890000000    -5.747000000    -7.720000000
H     3.125000000    -4.880000000    -8.050000000
H     2.541000000    -5.583000000    -6.843000000
O    -0.479000000    -4.781000000    -8.912000000
H    -0.861000000    -5.401000000    -8.291000000
H    -0.448000000    -3.952000000    -8.435000000
O     6.230000000    -6.225000000    -4.584000000
H     5.449000000    -5.914000000    -4.127000000
H     6.955000000    -5.773000000    -4.152000000
O     4.451000000    -4.629000000    -2.973000000
H     3.871000000    -4.784000000    -2.227000000
H     4.208000000    -3.760000000    -3.290000000
O     7.862000000    -2.141000000    -4.486000000
H     7.273000000    -1.566000000    -4.974000000
H     7.756000000    -1.874000000    -3.573000000
O     5.996000000     3.140000000    -4.954000000
H     6.245000000     3.103000000    -5.878000000
H     5.395000000     2.405000000    -4.838000000
O     0.399000000    -7.495000000    -7.269000000
H    -0.513000000    -7.205000000    -7.249000000
H     0.891000000    -6.722000000    -7.544000000
O     4.392000000    -8.194000000    -2.238000000
H     4.660000000    -7.299000000    -2.447000000
H     5.213000000    -8.659000000    -2.077000000
O     3.670000000     1.287000000    -4.877000000
H     3.996000000     1.402000000    -5.770000000
H     2.872000000     0.768000000    -4.979000000
O    -0.791000000     0.095000000    -7.616000000
H    -1.700000000    -0.153000000    -7.783000000
H    -0.630000000     0.827000000    -8.212000000
O     2.139000000    -4.765000000    -5.302000000
H     2.010000000    -5.235000000    -4.478000000
H     1.829000000    -3.878000000    -5.123000000
O     3.302000000    -1.735000000    -6.480000000
H     3.302000000    -2.388000000    -5.780000000
H     2.489000000    -1.246000000    -6.352000000
O     4.896000000    -0.638000000    -2.921000000
H     4.690000000     0.057000000    -3.547000000
H     4.362000000    -1.380000000    -3.203000000
