218
-1459.01081
C     1.609000000    -4.432000000     0.767000000
H     0.523000000    -4.396000000     0.769000000
C     2.232000000    -3.732000000     1.797000000
C     3.640000000    -3.430000000     1.800000000
H     4.078000000    -2.697000000     2.473000000
C     1.387000000    -2.792000000     2.620000000
O     0.248000000    -3.561000000     3.095000000
H     1.164000000    -1.990000000     1.901000000
O     2.225000000    -2.279000000     3.713000000
C     2.045000000    -1.007000000     4.104000000
C     2.931000000    -0.056000000     3.625000000
H     3.772000000    -0.289000000     2.978000000
C     2.598000000     1.275000000     3.716000000
O     3.411000000     2.125000000     3.098000000
C     1.422000000     1.686000000     4.402000000
C     1.042000000     3.187000000     4.474000000
H     0.316000000     3.312000000     5.280000000
C     0.311000000     3.687000000     3.253000000
C    -1.075000000     3.646000000     3.220000000
H    -1.528000000     3.342000000     4.161000000
H     1.875000000     3.893000000     4.496000000
C     0.562000000     0.762000000     4.897000000
H    -0.332000000     1.078000000     5.429000000
C     0.855000000    -0.609000000     4.730000000
C    -0.124000000    -1.630000000     5.273000000
H    -0.405000000    -1.236000000     6.252000000
H     0.351000000    -2.567000000     5.571000000
C    -1.245000000    -2.003000000     4.303000000
C    -2.510000000    -1.308000000     4.320000000
H    -2.706000000    -0.484000000     5.001000000
C    -1.060000000    -2.983000000     3.331000000
C    -2.060000000    -3.349000000     2.449000000
H    -1.863000000    -4.065000000     1.655000000
C    -3.259000000    -2.634000000     2.514000000
O    -4.123000000    -2.924000000     1.457000000
C    -4.135000000    -2.061000000     0.305000000
C    -4.244000000    -2.832000000    -1.007000000
C    -4.945000000    -2.276000000    -2.072000000
H    -5.417000000    -1.309000000    -1.918000000
C    -3.598000000    -4.026000000    -1.233000000
H    -2.941000000    -4.425000000    -0.465000000
O    -5.106000000    -1.183000000     0.421000000
H    -3.254000000    -1.402000000     0.313000000
C    -3.531000000    -1.562000000     3.379000000
C    -4.724000000    -0.705000000     3.244000000
H    -4.948000000    -0.165000000     4.166000000
H    -5.637000000    -1.278000000     3.074000000
C    -4.585000000     0.377000000     2.232000000
C    -3.972000000     1.592000000     2.560000000
H    -3.659000000     1.813000000     3.577000000
C    -4.774000000     0.128000000     0.891000000
C    -4.512000000     1.063000000    -0.115000000
H    -4.665000000     0.787000000    -1.155000000
C    -3.955000000     2.260000000     0.221000000
O    -3.487000000     3.095000000    -0.805000000
C    -2.024000000     3.182000000    -0.965000000
C    -1.584000000     3.039000000    -2.401000000
C    -2.358000000     2.260000000    -3.299000000
H    -3.298000000     1.870000000    -2.919000000
C    -0.422000000     3.690000000    -2.896000000
H     0.231000000     4.281000000    -2.260000000
O    -1.556000000     4.420000000    -0.323000000
H    -1.575000000     2.314000000    -0.459000000
C    -3.849000000     2.624000000     1.586000000
C    -3.301000000     3.954000000     1.919000000
H    -3.724000000     4.246000000     2.883000000
H    -3.626000000     4.695000000     1.186000000
C    -1.758000000     3.955000000     2.011000000
C    -0.997000000     4.331000000     0.946000000
C     0.355000000     4.442000000     0.987000000
H     0.888000000     4.693000000     0.073000000
C     1.033000000     4.098000000     2.115000000
O     2.385000000     3.889000000     2.014000000
C     2.939000000     2.566000000     1.857000000
H     2.030000000     2.007000000     1.589000000
C     3.929000000     2.562000000     0.711000000
C     4.955000000     1.639000000     0.811000000
H     5.122000000     0.937000000     1.624000000
C     3.992000000     3.575000000    -0.219000000
H     3.172000000     4.289000000    -0.199000000
C     5.086000000     3.624000000    -1.135000000
O     5.135000000     4.571000000    -2.160000000
C     6.026000000     2.619000000    -1.194000000
H     6.680000000     2.516000000    -2.056000000
C     5.955000000     1.642000000    -0.220000000
O     6.957000000     0.719000000    -0.300000000
C     7.063000000    -0.335000000     0.596000000
C     6.326000000    -1.508000000     0.266000000
H     5.717000000    -1.651000000    -0.623000000
C     7.892000000    -0.364000000     1.653000000
H     8.554000000     0.497000000     1.711000000
C     7.896000000    -1.409000000     2.563000000
H     8.522000000    -1.482000000     3.448000000
C     7.111000000    -2.560000000     2.272000000
H     7.073000000    -3.380000000     2.985000000
C     6.414000000    -2.643000000     1.010000000
O     5.773000000    -3.814000000     0.710000000
C     4.416000000    -4.028000000     0.716000000
C     3.764000000    -4.709000000    -0.314000000
H     4.391000000    -4.901000000    -1.181000000
C     2.332000000    -4.779000000    -0.363000000
O     1.674000000    -5.350000000    -1.429000000
C     0.485000000    -6.064000000    -1.416000000
C    -0.631000000    -5.496000000    -1.960000000
H    -0.532000000    -4.578000000    -2.532000000
C     0.494000000    -7.462000000    -1.104000000
H     1.434000000    -7.970000000    -0.907000000
C    -0.737000000    -8.135000000    -0.913000000
H    -0.827000000    -9.208000000    -0.767000000
C    -1.907000000    -7.494000000    -1.229000000
H    -2.870000000    -7.987000000    -1.127000000
C    -1.856000000    -6.233000000    -1.861000000
O    -2.962000000    -5.863000000    -2.562000000
C    -3.667000000    -4.684000000    -2.436000000
C    -4.397000000    -4.154000000    -3.507000000
H    -4.369000000    -4.719000000    -4.435000000
C    -5.033000000    -2.924000000    -3.293000000
O    -5.686000000    -2.441000000    -4.363000000
C    -5.374000000    -1.182000000    -4.805000000
C    -4.101000000    -0.601000000    -4.798000000
H    -3.253000000    -1.163000000    -4.415000000
C    -6.465000000    -0.453000000    -5.251000000
H    -7.429000000    -0.951000000    -5.189000000
C    -6.269000000     0.893000000    -5.492000000
H    -7.197000000     1.419000000    -5.702000000
C    -4.989000000     1.487000000    -5.473000000
H    -4.988000000     2.562000000    -5.636000000
C    -3.870000000     0.706000000    -5.182000000
O    -2.599000000     1.281000000    -5.513000000
C    -1.917000000     2.086000000    -4.578000000
C    -0.781000000     2.703000000    -5.004000000
H    -0.340000000     2.409000000    -5.953000000
C    -0.041000000     3.541000000    -4.198000000
O     1.030000000     4.232000000    -4.813000000
C     2.052000000     4.997000000    -4.165000000
C     1.913000000     6.373000000    -4.235000000
H     1.072000000     6.780000000    -4.790000000
C     2.846000000     7.174000000    -3.595000000
H     2.832000000     8.261000000    -3.630000000
C     3.949000000     6.575000000    -2.915000000
H     4.732000000     7.193000000    -2.482000000
C     3.972000000     5.180000000    -2.745000000
C     3.063000000     4.367000000    -3.424000000
H     3.287000000     3.304000000    -3.420000000
C    -0.168000000    -0.313000000    -2.149000000
H    -0.689000000    -0.364000000    -3.102000000
C    -0.836000000    -0.066000000    -1.011000000
H    -1.904000000     0.114000000    -1.104000000
C    -0.159000000    -0.043000000     0.195000000
C    -0.976000000     0.241000000     1.457000000
H    -1.489000000     1.206000000     1.444000000
H    -1.748000000    -0.531000000     1.437000000
H    -0.387000000     0.320000000     2.373000000
C     1.197000000    -0.162000000     0.183000000
H     1.764000000    -0.276000000     1.104000000
C     1.886000000    -0.408000000    -1.005000000
H     2.944000000    -0.654000000    -1.047000000
C     1.202000000    -0.520000000    -2.222000000
C     1.906000000    -0.720000000    -3.559000000
O     3.132000000    -0.684000000    -3.591000000
O     1.308000000    -1.035000000    -4.570000000
O     4.580000000    -2.751000000    -3.019000000
H     4.010000000    -3.310000000    -3.547000000
H     4.090000000    -1.934000000    -2.922000000
O    -0.667000000    -2.753000000    -4.669000000
H     0.072000000    -2.310000000    -4.252000000
H    -1.143000000    -2.054000000    -5.118000000
O     5.470000000    -1.085000000    -8.213000000
H     4.954000000    -1.396000000    -7.470000000
H     5.203000000    -0.172000000    -8.324000000
O     6.831000000     3.526000000    -4.705000000
H     6.489000000     3.862000000    -5.533000000
H     6.196000000     2.862000000    -4.435000000
O    -0.019000000    -5.306000000    -5.676000000
H    -0.217000000    -4.470000000    -5.253000000
H    -0.008000000    -5.104000000    -6.611000000
O     7.449000000     0.306000000    -5.322000000
H     6.668000000     0.839000000    -5.171000000
H     7.634000000     0.412000000    -6.255000000
O     4.418000000     1.333000000    -8.598000000
H     3.996000000     1.980000000    -9.164000000
H     4.319000000     1.688000000    -7.715000000
O     0.685000000     0.545000000    -6.762000000
H     0.948000000    -0.124000000    -6.131000000
H    -0.254000000     0.405000000    -6.882000000
O     1.814000000    -2.636000000    -9.877000000
H     2.582000000    -2.325000000   -10.357000000
H     1.418000000    -1.842000000    -9.519000000
O    -0.107000000    -4.099000000    -8.062000000
H     0.401000000    -4.247000000    -8.861000000
H    -0.248000000    -3.153000000    -8.040000000
O     3.040000000    -4.824000000    -4.566000000
H     2.107000000    -4.653000000    -4.440000000
H     3.285000000    -4.275000000    -5.312000000
O     7.056000000    -1.521000000    -3.384000000
H     6.139000000    -1.767000000    -3.263000000
H     7.037000000    -0.859000000    -4.076000000
O     1.554000000     0.170000000    -9.230000000
H     2.374000000     0.630000000    -9.410000000
H     1.267000000     0.515000000    -8.384000000
O     2.621000000     2.297000000    -6.535000000
H     1.906000000     1.666000000    -6.456000000
H     2.248000000     3.122000000    -6.222000000
O    -1.245000000    -1.673000000    -8.277000000
H    -2.119000000    -2.042000000    -8.401000000
H    -1.197000000    -0.954000000    -8.906000000
O     3.300000000    -5.118000000    -7.662000000
H     3.674000000    -4.646000000    -8.405000000
H     4.059000000    -5.443000000    -7.178000000
O     3.744000000    -1.599000000    -6.151000000
H     2.988000000    -2.036000000    -6.542000000
H     3.423000000    -1.273000000    -5.310000000
O     5.583000000    -5.077000000    -5.754000000
H     6.425000000    -4.713000000    -5.481000000
H     5.052000000    -5.076000000    -4.957000000
O     4.692000000     1.296000000    -4.585000000
H     4.110000000     1.568000000    -5.295000000
H     4.193000000     0.635000000    -4.106000000
