218
-1442.40243
C     3.496000000    -4.282000000     0.206000000
H     3.000000000    -4.900000000     0.949000000
C     3.884000000    -2.983000000     0.579000000
C     4.475000000    -2.240000000    -0.461000000
H     4.766000000    -1.220000000    -0.226000000
C     3.431000000    -2.172000000     1.837000000
O     2.933000000    -3.050000000     2.856000000
H     2.610000000    -1.537000000     1.473000000
O     4.351000000    -1.169000000     2.331000000
C     3.891000000     0.031000000     2.731000000
C     4.213000000     1.081000000     1.904000000
H     4.878000000     0.971000000     1.052000000
C     3.593000000     2.298000000     2.043000000
O     3.726000000     3.212000000     1.031000000
C     2.820000000     2.457000000     3.131000000
C     2.051000000     3.695000000     3.393000000
H     1.976000000     3.870000000     4.468000000
C     0.757000000     3.797000000     2.693000000
C    -0.441000000     3.412000000     3.292000000
H    -0.435000000     2.953000000     4.278000000
H     2.772000000     4.492000000     3.203000000
C     2.634000000     1.424000000     4.100000000
H     2.037000000     1.595000000     4.992000000
C     3.193000000     0.216000000     3.922000000
C     2.761000000    -0.948000000     4.862000000
H     2.563000000    -0.604000000     5.879000000
H     3.664000000    -1.540000000     5.024000000
C     1.526000000    -1.757000000     4.374000000
C     0.209000000    -1.558000000     4.875000000
H    -0.028000000    -0.815000000     5.633000000
C     1.721000000    -2.706000000     3.368000000
C     0.638000000    -3.461000000     2.851000000
H     0.836000000    -4.293000000     2.180000000
C    -0.682000000    -3.282000000     3.313000000
O    -1.736000000    -3.888000000     2.671000000
C    -2.411000000    -3.077000000     1.633000000
C    -2.724000000    -3.839000000     0.341000000
C    -3.759000000    -3.443000000    -0.441000000
H    -4.257000000    -2.511000000    -0.185000000
C    -1.879000000    -4.868000000    -0.090000000
H    -1.113000000    -5.244000000     0.585000000
O    -3.572000000    -2.403000000     2.142000000
H    -1.635000000    -2.372000000     1.302000000
C    -0.844000000    -2.215000000     4.256000000
C    -2.223000000    -1.826000000     4.691000000
H    -2.208000000    -1.538000000     5.744000000
H    -2.872000000    -2.703000000     4.647000000
C    -2.819000000    -0.808000000     3.765000000
C    -2.669000000     0.564000000     4.016000000
H    -2.162000000     0.938000000     4.902000000
C    -3.511000000    -1.118000000     2.601000000
C    -4.073000000    -0.180000000     1.745000000
H    -4.698000000    -0.480000000     0.907000000
C    -3.820000000     1.144000000     1.969000000
O    -4.283000000     2.072000000     1.063000000
C    -3.282000000     2.705000000     0.177000000
C    -3.879000000     2.881000000    -1.285000000
C    -4.733000000     1.895000000    -1.718000000
H    -5.131000000     1.110000000    -1.079000000
C    -3.503000000     3.892000000    -2.126000000
H    -2.806000000     4.634000000    -1.742000000
O    -2.967000000     3.995000000     0.679000000
H    -2.356000000     2.128000000     0.034000000
C    -3.183000000     1.524000000     3.085000000
C    -2.849000000     2.966000000     3.408000000
H    -2.594000000     3.013000000     4.469000000
H    -3.787000000     3.485000000     3.205000000
C    -1.664000000     3.529000000     2.640000000
C    -1.816000000     4.146000000     1.377000000
C    -0.635000000     4.550000000     0.783000000
H    -0.687000000     5.153000000    -0.120000000
C     0.669000000     4.325000000     1.392000000
O     1.820000000     4.589000000     0.691000000
C     2.545000000     3.443000000     0.171000000
H     1.884000000     2.574000000     0.301000000
C     2.851000000     3.569000000    -1.283000000
C     4.113000000     3.228000000    -1.817000000
H     4.861000000     2.836000000    -1.132000000
C     1.904000000     4.100000000    -2.191000000
H     0.942000000     4.385000000    -1.772000000
C     2.241000000     4.288000000    -3.549000000
O     1.383000000     4.702000000    -4.489000000
C     3.471000000     3.894000000    -3.986000000
H     3.679000000     3.875000000    -5.053000000
C     4.364000000     3.236000000    -3.165000000
O     5.436000000     2.557000000    -3.721000000
C     5.980000000     1.476000000    -3.146000000
C     5.268000000     0.228000000    -3.186000000
H     4.423000000     0.102000000    -3.858000000
C     7.065000000     1.620000000    -2.384000000
H     7.457000000     2.627000000    -2.273000000
C     7.600000000     0.554000000    -1.648000000
H     8.395000000     0.694000000    -0.919000000
C     6.990000000    -0.696000000    -1.770000000
H     7.353000000    -1.532000000    -1.178000000
C     5.853000000    -0.854000000    -2.530000000
O     5.311000000    -2.069000000    -2.716000000
C     4.912000000    -2.817000000    -1.633000000
C     4.570000000    -4.100000000    -1.975000000
H     4.819000000    -4.408000000    -2.987000000
C     3.830000000    -4.840000000    -1.098000000
O     3.466000000    -6.149000000    -1.400000000
C     2.317000000    -6.605000000    -0.896000000
C     1.119000000    -6.445000000    -1.524000000
H     1.077000000    -5.689000000    -2.304000000
C     2.292000000    -7.458000000     0.237000000
H     3.152000000    -7.364000000     0.897000000
C     1.125000000    -7.992000000     0.733000000
H     1.094000000    -8.465000000     1.712000000
C    -0.059000000    -7.735000000     0.087000000
H    -0.974000000    -8.201000000     0.443000000
C    -0.097000000    -6.965000000    -1.055000000
O    -1.289000000    -6.572000000    -1.672000000
C    -2.098000000    -5.545000000    -1.257000000
C    -3.128000000    -5.156000000    -2.096000000
H    -3.290000000    -5.662000000    -3.045000000
C    -3.949000000    -4.059000000    -1.749000000
O    -4.831000000    -3.591000000    -2.725000000
C    -5.635000000    -2.544000000    -2.394000000
C    -5.548000000    -1.244000000    -2.962000000
H    -4.712000000    -1.029000000    -3.623000000
C    -6.633000000    -2.746000000    -1.473000000
H    -6.646000000    -3.768000000    -1.103000000
C    -7.488000000    -1.728000000    -1.088000000
H    -8.176000000    -1.835000000    -0.253000000
C    -7.522000000    -0.530000000    -1.833000000
H    -8.250000000     0.242000000    -1.598000000
C    -6.476000000    -0.257000000    -2.665000000
O    -6.304000000     1.023000000    -3.275000000
C    -5.318000000     1.967000000    -2.965000000
C    -4.980000000     2.996000000    -3.816000000
H    -5.335000000     2.910000000    -4.840000000
C    -3.991000000     3.940000000    -3.437000000
O    -3.386000000     4.632000000    -4.489000000
C    -2.197000000     5.273000000    -4.287000000
C    -2.240000000     6.475000000    -3.612000000
H    -3.201000000     6.827000000    -3.244000000
C    -1.046000000     7.186000000    -3.249000000
H    -1.189000000     8.103000000    -2.683000000
C     0.209000000     6.598000000    -3.563000000
H     1.161000000     6.928000000    -3.156000000
C     0.218000000     5.387000000    -4.298000000
C    -0.917000000     4.728000000    -4.600000000
H    -0.982000000     3.765000000    -5.098000000
C    -0.657000000    -1.688000000    -2.113000000
H    -1.510000000    -2.128000000    -2.624000000
C    -0.834000000    -0.919000000    -0.942000000
H    -1.848000000    -0.774000000    -0.580000000
C     0.292000000    -0.299000000    -0.279000000
C     0.129000000     0.464000000     0.990000000
H     0.059000000     1.546000000     0.868000000
H    -0.753000000     0.020000000     1.455000000
H     1.046000000     0.204000000     1.523000000
C     1.558000000    -0.465000000    -0.874000000
H     2.400000000    -0.096000000    -0.294000000
C     1.711000000    -1.161000000    -2.030000000
H     2.689000000    -1.140000000    -2.504000000
C     0.640000000    -1.777000000    -2.674000000
C     0.833000000    -2.451000000    -4.014000000
O     1.719000000    -2.239000000    -4.819000000
O    -0.078000000    -3.171000000    -4.325000000
O    -0.282000000    -5.893000000    -4.421000000
H    -0.313000000    -5.018000000    -4.033000000
H     0.566000000    -5.928000000    -4.865000000
O     2.258000000     0.410000000    -5.020000000
H     2.087000000    -0.532000000    -5.002000000
H     1.463000000     0.804000000    -4.663000000
O    -0.842000000    -3.232000000    -9.792000000
H    -1.159000000    -2.669000000    -9.086000000
H    -1.560000000    -3.249000000   -10.426000000
O    -2.554000000    -6.734000000    -6.924000000
H    -2.101000000    -5.910000000    -7.101000000
H    -2.033000000    -7.152000000    -6.239000000
O     3.369000000    -4.009000000    -7.983000000
H     2.663000000    -3.826000000    -8.603000000
H     4.057000000    -4.410000000    -8.515000000
O    -1.507000000    -8.357000000    -4.766000000
H    -1.056000000    -7.615000000    -4.364000000
H    -2.356000000    -8.390000000    -4.324000000
O     3.982000000    -2.227000000    -6.030000000
H     3.691000000    -2.886000000    -6.661000000
H     3.325000000    -2.254000000    -5.335000000
O    -0.565000000     0.281000000    -8.283000000
H    -0.369000000    -0.456000000    -7.705000000
H    -1.165000000     0.830000000    -7.777000000
O     3.889000000    -7.313000000    -4.194000000
H     3.825000000    -7.739000000    -3.339000000
H     3.161000000    -6.692000000    -4.208000000
O     3.659000000    -1.074000000    -8.504000000
H     3.712000000    -1.783000000    -7.863000000
H     2.721000000    -0.962000000    -8.660000000
O    -0.687000000    -5.071000000    -7.374000000
H    -0.345000000    -4.511000000    -8.071000000
H    -0.238000000    -4.771000000    -6.584000000
O     1.833000000    -4.920000000    -6.019000000
H     1.791000000    -4.145000000    -5.458000000
H     2.284000000    -4.619000000    -6.809000000
O     0.130000000    -2.265000000    -7.016000000
H     0.613000000    -2.288000000    -6.190000000
H    -0.734000000    -2.615000000    -6.798000000
O    -2.298000000    -2.122000000    -5.423000000
H    -1.618000000    -2.644000000    -4.998000000
H    -2.306000000    -1.298000000    -4.936000000
O     3.965000000     1.569000000    -7.097000000
H     3.397000000     1.446000000    -6.336000000
H     4.140000000     0.682000000    -7.411000000
O     0.478000000    -7.495000000    -8.058000000
H     0.238000000    -6.685000000    -7.609000000
H     0.977000000    -7.207000000    -8.823000000
O    -4.767000000    -3.076000000    -6.255000000
H    -3.939000000    -2.840000000    -5.836000000
H    -4.509000000    -3.530000000    -7.057000000
O    -2.439000000     0.509000000    -4.706000000
H    -1.586000000     0.669000000    -4.303000000
H    -2.464000000     1.101000000    -5.457000000
O    -0.045000000     1.394000000    -3.731000000
H    -0.170000000     2.338000000    -3.828000000
H    -0.122000000     1.238000000    -2.789000000
