218
-1442.67824
C     2.960000000    -4.414000000    -0.418000000
H     2.120000000    -4.757000000     0.181000000
C     3.617000000    -3.324000000     0.174000000
C     4.619000000    -2.708000000    -0.558000000
H     5.083000000    -1.809000000    -0.161000000
C     3.162000000    -2.735000000     1.502000000
O     2.431000000    -3.687000000     2.250000000
H     2.392000000    -1.993000000     1.246000000
O     4.166000000    -1.950000000     2.146000000
C     3.822000000    -0.728000000     2.632000000
C     4.197000000     0.435000000     1.993000000
H     4.812000000     0.195000000     1.129000000
C     3.726000000     1.706000000     2.350000000
O     3.872000000     2.778000000     1.594000000
C     2.843000000     1.791000000     3.463000000
C     2.399000000     3.133000000     3.938000000
H     2.357000000     3.150000000     5.029000000
C     1.064000000     3.556000000     3.301000000
C    -0.218000000     3.319000000     3.944000000
H    -0.297000000     2.751000000     4.867000000
H     3.131000000     3.880000000     3.623000000
C     2.447000000     0.632000000     4.071000000
H     1.712000000     0.708000000     4.868000000
C     2.929000000    -0.614000000     3.709000000
C     2.508000000    -1.881000000     4.464000000
H     2.387000000    -1.533000000     5.492000000
H     3.224000000    -2.696000000     4.582000000
C     1.255000000    -2.433000000     3.906000000
C     0.057000000    -1.925000000     4.381000000
H     0.035000000    -1.273000000     5.251000000
C     1.224000000    -3.385000000     2.906000000
C    -0.030000000    -3.729000000     2.281000000
H    -0.037000000    -4.379000000     1.410000000
C    -1.189000000    -3.235000000     2.830000000
O    -2.307000000    -3.698000000     2.235000000
C    -3.005000000    -2.741000000     1.363000000
C    -3.432000000    -3.431000000     0.026000000
C    -4.469000000    -2.854000000    -0.735000000
H    -4.955000000    -1.987000000    -0.294000000
C    -2.668000000    -4.429000000    -0.555000000
H    -1.873000000    -4.952000000    -0.029000000
O    -4.067000000    -1.997000000     2.082000000
H    -2.175000000    -2.093000000     1.045000000
C    -1.161000000    -2.415000000     3.951000000
C    -2.455000000    -1.895000000     4.545000000
H    -2.322000000    -1.583000000     5.583000000
H    -3.262000000    -2.629000000     4.500000000
C    -2.948000000    -0.690000000     3.792000000
C    -2.679000000     0.629000000     4.244000000
H    -2.134000000     0.775000000     5.173000000
C    -3.677000000    -0.841000000     2.598000000
C    -4.147000000     0.259000000     1.915000000
H    -4.632000000     0.068000000     0.962000000
C    -3.880000000     1.576000000     2.412000000
O    -4.139000000     2.603000000     1.511000000
C    -3.018000000     3.026000000     0.706000000
C    -3.404000000     3.155000000    -0.763000000
C    -4.619000000     2.561000000    -1.216000000
H    -5.292000000     2.030000000    -0.547000000
C    -2.569000000     3.768000000    -1.706000000
H    -1.563000000     4.076000000    -1.433000000
O    -2.503000000     4.243000000     1.308000000
H    -2.291000000     2.200000000     0.688000000
C    -3.126000000     1.751000000     3.582000000
C    -2.746000000     3.155000000     4.059000000
H    -2.641000000     3.245000000     5.143000000
H    -3.569000000     3.756000000     3.667000000
C    -1.423000000     3.663000000     3.361000000
C    -1.349000000     4.158000000     2.045000000
C    -0.181000000     4.383000000     1.346000000
H    -0.114000000     4.700000000     0.308000000
C     1.013000000     4.058000000     1.971000000
O     2.173000000     4.292000000     1.230000000
C     2.786000000     3.127000000     0.705000000
H     2.044000000     2.316000000     0.665000000
C     3.267000000     3.336000000    -0.735000000
C     4.217000000     2.385000000    -1.369000000
H     4.479000000     1.556000000    -0.717000000
C     2.764000000     4.328000000    -1.542000000
H     1.995000000     4.987000000    -1.147000000
C     3.230000000     4.525000000    -2.883000000
O     2.719000000     5.486000000    -3.701000000
C     4.286000000     3.727000000    -3.297000000
H     4.615000000     3.985000000    -4.300000000
C     4.705000000     2.640000000    -2.630000000
O     5.638000000     1.797000000    -3.135000000
C     6.284000000     0.763000000    -2.457000000
C     6.056000000    -0.487000000    -2.877000000
H     5.201000000    -0.627000000    -3.534000000
C     7.304000000     1.034000000    -1.576000000
H     7.508000000     2.065000000    -1.298000000
C     8.110000000    -0.026000000    -1.072000000
H     8.788000000     0.236000000    -0.263000000
C     7.792000000    -1.349000000    -1.311000000
H     8.262000000    -2.179000000    -0.790000000
C     6.766000000    -1.577000000    -2.279000000
O     6.216000000    -2.878000000    -2.361000000
C     5.138000000    -3.324000000    -1.681000000
C     4.517000000    -4.448000000    -2.207000000
H     4.983000000    -4.793000000    -3.126000000
C     3.397000000    -4.994000000    -1.608000000
O     2.780000000    -6.084000000    -2.130000000
C     1.511000000    -6.462000000    -1.819000000
C     0.429000000    -5.816000000    -2.349000000
H     0.599000000    -4.977000000    -3.019000000
C     1.352000000    -7.554000000    -0.991000000
H     2.178000000    -8.093000000    -0.535000000
C     0.046000000    -7.983000000    -0.654000000
H    -0.236000000    -8.769000000     0.042000000
C    -1.083000000    -7.364000000    -1.203000000
H    -2.055000000    -7.716000000    -0.869000000
C    -0.886000000    -6.239000000    -1.942000000
O    -1.994000000    -5.663000000    -2.516000000
C    -2.902000000    -4.872000000    -1.821000000
C    -3.892000000    -4.280000000    -2.582000000
H    -4.044000000    -4.459000000    -3.644000000
C    -4.662000000    -3.239000000    -2.016000000
O    -5.723000000    -2.714000000    -2.735000000
C    -6.474000000    -1.574000000    -2.481000000
C    -5.964000000    -0.300000000    -2.874000000
H    -4.940000000    -0.201000000    -3.224000000
C    -7.790000000    -1.686000000    -2.026000000
H    -8.210000000    -2.682000000    -1.921000000
C    -8.573000000    -0.516000000    -1.850000000
H    -9.613000000    -0.535000000    -1.534000000
C    -8.006000000     0.735000000    -2.205000000
H    -8.534000000     1.686000000    -2.195000000
C    -6.716000000     0.824000000    -2.602000000
O    -6.152000000     2.058000000    -2.972000000
C    -4.942000000     2.561000000    -2.631000000
C    -3.966000000     3.085000000    -3.515000000
H    -4.173000000     2.898000000    -4.566000000
C    -2.826000000     3.694000000    -3.075000000
O    -1.965000000     4.173000000    -4.066000000
C    -0.972000000     5.140000000    -3.889000000
C    -1.367000000     6.433000000    -3.793000000
H    -2.406000000     6.743000000    -3.704000000
C    -0.435000000     7.481000000    -3.692000000
H    -0.688000000     8.526000000    -3.531000000
C     0.933000000     7.169000000    -3.646000000
H     1.690000000     7.914000000    -3.415000000
C     1.331000000     5.811000000    -3.786000000
C     0.398000000     4.796000000    -3.902000000
H     0.667000000     3.753000000    -4.048000000
C    -0.528000000    -1.351000000    -2.140000000
H    -1.392000000    -1.845000000    -2.577000000
C    -0.750000000    -0.636000000    -0.952000000
H    -1.701000000    -0.553000000    -0.431000000
C     0.436000000    -0.147000000    -0.334000000
C     0.380000000     0.243000000     1.128000000
H     0.038000000     1.275000000     1.228000000
H    -0.167000000    -0.498000000     1.714000000
H     1.335000000     0.058000000     1.624000000
C     1.752000000    -0.277000000    -0.881000000
H     2.656000000     0.079000000    -0.393000000
C     1.851000000    -0.876000000    -2.146000000
H     2.707000000    -0.726000000    -2.799000000
C     0.707000000    -1.378000000    -2.825000000
C     0.856000000    -2.004000000    -4.193000000
O     1.904000000    -1.995000000    -4.787000000
O    -0.084000000    -2.625000000    -4.714000000
O     1.449000000    -5.192000000    -5.699000000
H     0.750000000    -4.539000000    -5.684000000
H     2.145000000    -4.811000000    -5.163000000
O    -0.666000000     1.462000000    -3.112000000
H    -1.106000000     0.920000000    -2.457000000
H     0.264000000     1.266000000    -2.999000000
O    -2.603000000    -2.741000000    -5.758000000
H    -1.713000000    -2.928000000    -5.459000000
H    -3.153000000    -3.355000000    -5.271000000
O     2.991000000    -7.167000000    -6.774000000
H     2.510000000    -6.401000000    -6.462000000
H     3.757000000    -6.804000000    -7.219000000
O    -3.202000000    -3.826000000    -8.185000000
H    -3.576000000    -3.249000000    -8.852000000
H    -3.045000000    -3.254000000    -7.434000000
O     3.112000000     0.374000000    -5.251000000
H     4.041000000     0.310000000    -5.472000000
H     2.856000000    -0.522000000    -5.031000000
O     0.898000000     1.657000000    -6.423000000
H     1.520000000     1.094000000    -5.963000000
H     0.041000000     1.386000000    -6.095000000
O     5.808000000    -0.199000000    -5.998000000
H     6.410000000    -0.884000000    -6.288000000
H     6.209000000     0.616000000    -6.301000000
O     2.280000000    -0.735000000    -8.048000000
H     2.718000000    -0.275000000    -7.332000000
H     1.464000000    -1.055000000    -7.663000000
O     4.027000000    -3.297000000    -5.771000000
H     3.302000000    -2.916000000    -5.277000000
H     3.945000000    -2.921000000    -6.647000000
O     4.411000000     0.181000000    -9.147000000
H     4.214000000     0.719000000    -9.914000000
H     3.569000000    -0.203000000    -8.901000000
O    -0.419000000    -1.650000000    -7.401000000
H    -0.059000000    -1.824000000    -6.531000000
H    -1.353000000    -1.844000000    -7.316000000
O     6.890000000    -3.205000000    -5.163000000
H     6.594000000    -3.367000000    -4.267000000
H     6.098000000    -2.944000000    -5.633000000
O    -1.838000000     1.007000000    -9.070000000
H    -2.743000000     1.279000000    -9.223000000
H    -1.913000000     0.206000000    -8.551000000
O     0.700000000    -2.277000000    -9.983000000
H     1.563000000    -2.646000000   -10.174000000
H     0.785000000    -1.915000000    -9.101000000
O     0.994000000     2.960000000    -8.859000000
H     0.750000000     2.335000000    -9.542000000
H     0.855000000     2.486000000    -8.039000000
O    -3.879000000    -0.087000000    -6.835000000
H    -3.170000000     0.353000000    -6.366000000
H    -3.881000000    -0.978000000    -6.486000000
O     0.133000000    -6.561000000    -8.037000000
H     0.478000000    -6.504000000    -7.146000000
H     0.727000000    -6.021000000    -8.559000000
O    -1.864000000     1.258000000    -5.509000000
H    -1.623000000     1.389000000    -4.592000000
H    -2.233000000     2.098000000    -5.782000000
