218
-1449.84239
C    -0.273000000    -4.691000000    -0.908000000
H    -1.121000000    -4.725000000    -0.229000000
C     0.946000000    -4.392000000    -0.282000000
C     2.217000000    -4.576000000    -1.014000000
H     3.178000000    -4.304000000    -0.584000000
C     0.924000000    -3.780000000     1.220000000
O    -0.011000000    -4.518000000     2.047000000
H     0.580000000    -2.741000000     1.108000000
O     2.266000000    -3.765000000     1.792000000
C     2.714000000    -2.661000000     2.392000000
C     3.621000000    -1.948000000     1.637000000
H     3.937000000    -2.367000000     0.685000000
C     4.118000000    -0.715000000     2.123000000
O     4.924000000     0.081000000     1.231000000
C     3.585000000    -0.212000000     3.299000000
C     3.901000000     1.233000000     3.763000000
H     3.842000000     1.289000000     4.852000000
C     2.993000000     2.197000000     3.068000000
C     1.833000000     2.669000000     3.766000000
H     1.572000000     2.244000000     4.732000000
H     4.950000000     1.485000000     3.597000000
C     2.740000000    -0.996000000     4.115000000
H     2.527000000    -0.534000000     5.075000000
C     2.276000000    -2.270000000     3.674000000
C     1.320000000    -3.167000000     4.358000000
H     1.440000000    -2.923000000     5.416000000
H     1.567000000    -4.216000000     4.184000000
C    -0.169000000    -2.991000000     3.964000000
C    -0.850000000    -2.017000000     4.690000000
H    -0.237000000    -1.315000000     5.249000000
C    -0.780000000    -3.761000000     2.953000000
C    -2.102000000    -3.490000000     2.642000000
H    -2.535000000    -4.072000000     1.831000000
C    -2.730000000    -2.408000000     3.285000000
O    -3.973000000    -1.943000000     2.794000000
C    -3.935000000    -0.912000000     1.853000000
C    -4.746000000    -1.169000000     0.601000000
C    -5.240000000    -0.083000000    -0.164000000
H    -5.128000000     0.934000000     0.201000000
C    -4.718000000    -2.423000000     0.039000000
H    -4.376000000    -3.317000000     0.552000000
O    -4.372000000     0.285000000     2.441000000
H    -2.905000000    -0.731000000     1.511000000
C    -2.129000000    -1.647000000     4.370000000
C    -2.737000000    -0.307000000     4.825000000
H    -2.445000000    -0.070000000     5.850000000
H    -3.816000000    -0.472000000     4.857000000
C    -2.525000000     0.879000000     3.910000000
C    -1.603000000     1.877000000     4.310000000
H    -1.020000000     1.771000000     5.221000000
C    -3.360000000     1.097000000     2.808000000
C    -3.128000000     2.232000000     2.031000000
H    -3.718000000     2.437000000     1.141000000
C    -2.188000000     3.204000000     2.428000000
O    -1.950000000     4.221000000     1.552000000
C    -0.773000000     4.067000000     0.650000000
C    -1.129000000     4.678000000    -0.714000000
C    -2.457000000     4.741000000    -1.175000000
H    -3.285000000     4.489000000    -0.517000000
C    -0.100000000     4.850000000    -1.628000000
H     0.938000000     4.635000000    -1.385000000
O     0.391000000     4.734000000     1.194000000
H    -0.602000000     2.981000000     0.649000000
C    -1.394000000     3.072000000     3.617000000
C    -0.284000000     4.030000000     3.929000000
H    -0.170000000     4.012000000     5.015000000
H    -0.475000000     5.045000000     3.573000000
C     1.002000000     3.558000000     3.202000000
C     1.318000000     3.991000000     1.894000000
C     2.428000000     3.559000000     1.277000000
H     2.539000000     3.883000000     0.245000000
C     3.355000000     2.757000000     1.874000000
O     4.432000000     2.286000000     1.108000000
C     4.131000000     1.101000000     0.535000000
H     3.085000000     0.794000000     0.684000000
C     4.449000000     1.067000000    -0.979000000
C     4.846000000    -0.166000000    -1.567000000
H     4.816000000    -1.095000000    -1.003000000
C     4.471000000     2.225000000    -1.684000000
H     4.152000000     3.148000000    -1.207000000
C     4.823000000     2.174000000    -3.078000000
O     4.908000000     3.301000000    -3.855000000
C     5.246000000     1.003000000    -3.635000000
H     5.619000000     1.015000000    -4.655000000
C     5.346000000    -0.177000000    -2.823000000
O     5.966000000    -1.298000000    -3.418000000
C     5.813000000    -2.624000000    -3.023000000
C     4.596000000    -3.181000000    -3.140000000
H     3.796000000    -2.494000000    -3.408000000
C     6.940000000    -3.372000000    -2.621000000
H     7.897000000    -2.868000000    -2.510000000
C     6.740000000    -4.785000000    -2.441000000
H     7.565000000    -5.472000000    -2.274000000
C     5.446000000    -5.334000000    -2.508000000
H     5.350000000    -6.395000000    -2.294000000
C     4.386000000    -4.565000000    -2.880000000
O     3.183000000    -5.162000000    -3.063000000
C     2.074000000    -5.047000000    -2.326000000
C     0.802000000    -5.255000000    -2.921000000
H     0.672000000    -5.650000000    -3.925000000
C    -0.345000000    -5.257000000    -2.173000000
O    -1.473000000    -5.712000000    -2.788000000
C    -2.649000000    -5.893000000    -2.116000000
C    -3.559000000    -4.860000000    -2.132000000
H    -3.280000000    -3.897000000    -2.551000000
C    -3.006000000    -7.172000000    -1.675000000
H    -2.394000000    -8.050000000    -1.867000000
C    -4.305000000    -7.300000000    -1.137000000
H    -4.659000000    -8.265000000    -0.782000000
C    -5.165000000    -6.241000000    -1.049000000
H    -6.121000000    -6.387000000    -0.553000000
C    -4.843000000    -4.977000000    -1.552000000
O    -5.808000000    -3.947000000    -1.582000000
C    -5.423000000    -2.675000000    -1.124000000
C    -5.824000000    -1.598000000    -1.937000000
H    -6.112000000    -1.720000000    -2.978000000
C    -5.755000000    -0.299000000    -1.425000000
O    -6.139000000     0.779000000    -2.255000000
C    -6.105000000     2.112000000    -1.873000000
C    -5.134000000     2.904000000    -2.433000000
H    -4.310000000     2.488000000    -3.006000000
C    -7.191000000     2.693000000    -1.126000000
H    -8.010000000     2.094000000    -0.736000000
C    -7.159000000     4.140000000    -0.988000000
H    -7.957000000     4.627000000    -0.432000000
C    -6.148000000     4.935000000    -1.635000000
H    -6.098000000     6.021000000    -1.638000000
C    -5.109000000     4.276000000    -2.279000000
O    -4.068000000     4.959000000    -2.919000000
C    -2.750000000     4.902000000    -2.526000000
C    -1.686000000     5.142000000    -3.434000000
H    -1.781000000     5.338000000    -4.499000000
C    -0.389000000     5.062000000    -2.980000000
O     0.655000000     5.338000000    -3.871000000
C     1.944000000     5.412000000    -3.570000000
C     2.467000000     6.563000000    -2.897000000
H     1.886000000     7.362000000    -2.443000000
C     3.852000000     6.568000000    -2.637000000
H     4.311000000     7.366000000    -2.058000000
C     4.645000000     5.508000000    -3.003000000
H     5.702000000     5.479000000    -2.752000000
C     4.131000000     4.387000000    -3.621000000
C     2.798000000     4.428000000    -3.999000000
H     2.384000000     3.622000000    -4.600000000
C    -1.448000000    -0.113000000    -2.105000000
H    -2.375000000     0.248000000    -2.542000000
C    -1.201000000     0.205000000    -0.792000000
H    -1.992000000     0.728000000    -0.261000000
C    -0.013000000    -0.150000000    -0.129000000
C     0.206000000     0.241000000     1.319000000
H     1.180000000     0.719000000     1.441000000
H    -0.457000000     1.031000000     1.677000000
H     0.132000000    -0.669000000     1.918000000
C     0.957000000    -0.849000000    -0.837000000
H     1.823000000    -1.093000000    -0.226000000
C     0.732000000    -1.228000000    -2.180000000
H     1.526000000    -1.753000000    -2.705000000
C    -0.460000000    -0.851000000    -2.839000000
C    -0.577000000    -1.118000000    -4.326000000
O     0.425000000    -1.187000000    -4.972000000
O    -1.660000000    -1.085000000    -4.902000000
O     0.785000000    -0.117000000    -9.445000000
H     1.327000000    -0.249000000   -10.222000000
H    -0.060000000    -0.503000000    -9.675000000
O     1.272000000     3.321000000    -7.543000000
H     2.201000000     3.266000000    -7.321000000
H     0.935000000     2.439000000    -7.384000000
O    -4.257000000    -0.655000000    -4.845000000
H    -3.332000000    -0.884000000    -4.750000000
H    -4.586000000    -0.611000000    -3.948000000
O    -3.376000000    -2.317000000    -8.985000000
H    -3.234000000    -1.688000000    -8.278000000
H    -2.757000000    -3.025000000    -8.805000000
O     1.285000000     0.931000000    -6.262000000
H     2.162000000     0.727000000    -6.586000000
H     0.992000000     0.124000000    -5.838000000
O    -2.422000000    -6.591000000    -5.639000000
H    -2.016000000    -5.972000000    -6.246000000
H    -2.185000000    -6.265000000    -4.771000000
O    -3.100000000     4.650000000    -6.776000000
H    -3.964000000     4.314000000    -6.537000000
H    -2.488000000     3.990000000    -6.448000000
O     2.759000000    -2.387000000    -5.817000000
H     1.991000000    -1.987000000    -5.411000000
H     2.962000000    -1.816000000    -6.558000000
O    -1.533000000     2.723000000    -5.877000000
H    -1.731000000     1.812000000    -5.659000000
H    -0.751000000     2.675000000    -6.426000000
O     3.650000000    -5.025000000    -6.044000000
H     3.059000000    -5.760000000    -5.879000000
H     3.207000000    -4.270000000    -5.658000000
O    -4.519000000     1.467000000    -6.318000000
H    -4.520000000     0.600000000    -5.914000000
H    -3.922000000     1.385000000    -7.062000000
O    -0.279000000    -4.708000000    -6.525000000
H     0.274000000    -5.474000000    -6.374000000
H     0.284000000    -3.962000000    -6.320000000
O    -1.497000000     0.026000000    -7.290000000
H    -1.720000000    -0.474000000    -6.505000000
H    -0.546000000     0.125000000    -7.249000000
O     3.142000000    -0.755000000    -8.086000000
H     2.263000000    -0.476000000    -8.346000000
H     3.539000000    -1.077000000    -8.895000000
O    -2.844000000    -3.658000000    -5.466000000
H    -2.478000000    -3.594000000    -6.348000000
H    -2.134000000    -3.372000000    -4.891000000
O     1.510000000    -3.603000000    -9.039000000
H     0.771000000    -3.773000000    -9.623000000
H     2.185000000    -3.234000000    -9.608000000
O    -3.405000000     1.150000000    -8.767000000
H    -2.619000000     0.803000000    -8.345000000
H    -3.096000000     1.910000000    -9.259000000
O    -5.365000000    -4.143000000    -6.021000000
H    -4.450000000    -3.940000000    -5.825000000
H    -5.681000000    -4.601000000    -5.241000000
O    -1.990000000    -4.747000000    -8.498000000
H    -1.352000000    -4.724000000    -7.785000000
H    -1.703000000    -5.472000000    -9.053000000
