218
-1435.62581
C    -0.310000000    -4.932000000    -1.438000000
H    -1.162000000    -4.767000000    -0.784000000
C     1.017000000    -4.734000000    -1.009000000
C     2.039000000    -4.829000000    -1.943000000
H     3.102000000    -4.734000000    -1.739000000
C     1.365000000    -4.118000000     0.394000000
O     0.537000000    -4.686000000     1.476000000
H     1.033000000    -3.071000000     0.345000000
O     2.771000000    -4.018000000     0.725000000
C     3.295000000    -2.844000000     1.275000000
C     3.972000000    -1.958000000     0.440000000
H     4.090000000    -2.201000000    -0.612000000
C     4.497000000    -0.746000000     0.961000000
O     4.963000000     0.090000000     0.047000000
C     4.393000000    -0.474000000     2.327000000
C     4.935000000     0.899000000     2.757000000
H     5.204000000     0.781000000     3.809000000
C     3.821000000     1.952000000     2.541000000
C     3.006000000     2.158000000     3.611000000
H     3.188000000     1.602000000     4.526000000
H     5.777000000     1.278000000     2.174000000
C     3.733000000    -1.322000000     3.249000000
H     3.659000000    -1.072000000     4.305000000
C     3.163000000    -2.501000000     2.667000000
C     2.443000000    -3.463000000     3.554000000
H     2.711000000    -3.306000000     4.601000000
H     2.562000000    -4.544000000     3.458000000
C     0.973000000    -3.270000000     3.423000000
C     0.399000000    -2.397000000     4.317000000
H     0.924000000    -1.900000000     5.129000000
C     0.169000000    -3.882000000     2.400000000
C    -1.180000000    -3.544000000     2.411000000
H    -1.834000000    -4.131000000     1.770000000
C    -1.762000000    -2.685000000     3.279000000
O    -3.071000000    -2.294000000     3.018000000
C    -3.297000000    -0.866000000     2.694000000
C    -4.253000000    -0.720000000     1.490000000
C    -5.106000000     0.321000000     1.438000000
H    -5.025000000     1.121000000     2.169000000
C    -4.355000000    -1.723000000     0.544000000
H    -3.817000000    -2.644000000     0.756000000
O    -3.651000000    -0.012000000     3.798000000
H    -2.393000000    -0.493000000     2.190000000
C    -0.975000000    -2.124000000     4.294000000
C    -1.553000000    -1.255000000     5.325000000
H    -0.873000000    -1.452000000     6.156000000
H    -2.547000000    -1.502000000     5.702000000
C    -1.539000000     0.193000000     4.898000000
C    -0.369000000     0.985000000     5.052000000
H     0.533000000     0.676000000     5.574000000
C    -2.656000000     0.742000000     4.267000000
C    -2.527000000     1.896000000     3.540000000
H    -3.338000000     2.242000000     2.904000000
C    -1.415000000     2.701000000     3.786000000
O    -1.435000000     3.903000000     3.055000000
C    -0.687000000     3.685000000     1.784000000
C    -1.351000000     3.897000000     0.503000000
C    -2.639000000     4.468000000     0.521000000
H    -3.170000000     4.755000000     1.426000000
C    -0.746000000     3.603000000    -0.697000000
H     0.177000000     3.033000000    -0.633000000
O     0.493000000     4.398000000     1.961000000
H    -0.508000000     2.600000000     1.761000000
C    -0.303000000     2.275000000     4.493000000
C     0.918000000     3.183000000     4.641000000
H     1.434000000     3.148000000     5.603000000
H     0.506000000     4.194000000     4.682000000
C     1.900000000     3.057000000     3.488000000
C     1.620000000     3.664000000     2.242000000
C     2.401000000     3.339000000     1.117000000
H     2.320000000     3.881000000     0.178000000
C     3.459000000     2.450000000     1.272000000
O     4.248000000     2.236000000     0.188000000
C     4.041000000     1.040000000    -0.533000000
H     3.032000000     0.649000000    -0.336000000
C     4.349000000     1.246000000    -2.025000000
C     4.554000000     0.118000000    -2.811000000
H     4.644000000    -0.849000000    -2.323000000
C     4.279000000     2.482000000    -2.686000000
H     3.936000000     3.376000000    -2.171000000
C     4.302000000     2.595000000    -4.058000000
O     3.956000000     3.819000000    -4.634000000
C     4.495000000     1.511000000    -4.855000000
H     4.454000000     1.596000000    -5.938000000
C     4.750000000     0.266000000    -4.216000000
O     4.864000000    -0.895000000    -4.959000000
C     4.940000000    -2.243000000    -4.561000000
C     3.781000000    -3.042000000    -4.548000000
H     2.790000000    -2.637000000    -4.740000000
C     6.174000000    -2.863000000    -4.388000000
H     7.065000000    -2.249000000    -4.494000000
C     6.265000000    -4.169000000    -4.003000000
H     7.199000000    -4.636000000    -3.702000000
C     5.085000000    -4.921000000    -4.017000000
H     5.231000000    -5.976000000    -3.799000000
C     3.837000000    -4.403000000    -4.249000000
O     2.739000000    -5.266000000    -4.221000000
C     1.733000000    -5.153000000    -3.296000000
C     0.433000000    -5.497000000    -3.706000000
H     0.226000000    -5.832000000    -4.719000000
C    -0.584000000    -5.221000000    -2.769000000
O    -1.891000000    -5.524000000    -3.203000000
C    -2.981000000    -5.265000000    -2.377000000
C    -3.641000000    -4.034000000    -2.404000000
H    -3.253000000    -3.280000000    -3.085000000
C    -3.372000000    -6.299000000    -1.516000000
H    -2.782000000    -7.211000000    -1.567000000
C    -4.464000000    -6.080000000    -0.651000000
H    -4.831000000    -6.848000000     0.025000000
C    -5.066000000    -4.858000000    -0.575000000
H    -5.936000000    -4.740000000     0.066000000
C    -4.617000000    -3.805000000    -1.436000000
O    -5.363000000    -2.641000000    -1.503000000
C    -5.203000000    -1.672000000    -0.518000000
C    -5.938000000    -0.506000000    -0.690000000
H    -6.655000000    -0.429000000    -1.503000000
C    -5.922000000     0.436000000     0.307000000
O    -6.919000000     1.374000000     0.269000000
C    -6.756000000     2.714000000     0.493000000
C    -5.493000000     3.326000000     0.042000000
H    -4.665000000     2.738000000    -0.346000000
C    -7.806000000     3.547000000     0.872000000
H    -8.732000000     3.071000000     1.186000000
C    -7.697000000     4.965000000     0.947000000
H    -8.510000000     5.613000000     1.262000000
C    -6.532000000     5.561000000     0.411000000
H    -6.395000000     6.637000000     0.482000000
C    -5.458000000     4.742000000    -0.062000000
O    -4.487000000     5.295000000    -0.846000000
C    -3.190000000     4.845000000    -0.743000000
C    -2.485000000     4.727000000    -1.911000000
H    -2.991000000     5.070000000    -2.810000000
C    -1.255000000     4.123000000    -1.935000000
O    -0.659000000     3.845000000    -3.098000000
C     0.477000000     4.521000000    -3.583000000
C     0.409000000     5.848000000    -3.908000000
H    -0.506000000     6.392000000    -3.690000000
C     1.478000000     6.447000000    -4.549000000
H     1.388000000     7.503000000    -4.791000000
C     2.669000000     5.737000000    -4.796000000
H     3.594000000     6.210000000    -5.113000000
C     2.719000000     4.423000000    -4.436000000
C     1.587000000     3.776000000    -3.914000000
H     1.586000000     2.703000000    -3.739000000
C    -1.488000000     0.549000000    -2.982000000
H    -2.479000000     0.892000000    -3.269000000
C    -1.305000000     0.393000000    -1.579000000
H    -2.063000000     0.739000000    -0.881000000
C    -0.107000000    -0.053000000    -1.141000000
C     0.177000000    -0.012000000     0.351000000
H    -0.660000000    -0.361000000     0.960000000
H     1.025000000    -0.637000000     0.637000000
H     0.399000000     0.967000000     0.782000000
C     0.865000000    -0.476000000    -1.965000000
H     1.832000000    -0.808000000    -1.594000000
C     0.694000000    -0.421000000    -3.309000000
H     1.489000000    -0.881000000    -3.889000000
C    -0.479000000     0.062000000    -3.845000000
C    -0.674000000     0.108000000    -5.283000000
O     0.233000000    -0.286000000    -6.041000000
O    -1.548000000     0.715000000    -5.836000000
O     2.962000000     2.838000000    -8.235000000
H     2.170000000     2.676000000    -7.723000000
H     2.824000000     2.354000000    -9.050000000
O    -0.541000000    -2.990000000    -6.772000000
H    -0.797000000    -2.515000000    -7.563000000
H     0.002000000    -2.370000000    -6.286000000
O    -5.486000000     0.535000000    -3.893000000
H    -4.893000000     0.027000000    -4.446000000
H    -5.440000000     1.424000000    -4.247000000
O    -3.749000000    -0.508000000    -5.997000000
H    -2.941000000    -0.010000000    -5.872000000
H    -3.455000000    -1.373000000    -6.283000000
O     3.671000000    -0.579000000    -9.762000000
H     3.383000000    -0.831000000    -8.885000000
H     4.548000000    -0.219000000    -9.632000000
O    -3.244000000     2.467000000    -9.238000000
H    -2.543000000     1.989000000    -8.795000000
H    -3.777000000     1.786000000    -9.649000000
O     2.601000000    -1.029000000    -7.352000000
H     3.265000000    -0.650000000    -6.776000000
H     1.772000000    -0.679000000    -7.025000000
O     1.114000000     2.285000000    -6.582000000
H     0.886000000     1.427000000    -6.224000000
H     0.325000000     2.813000000    -6.460000000
O     1.489000000    -2.875000000    -9.395000000
H     1.558000000    -2.254000000   -10.120000000
H     1.462000000    -2.325000000    -8.611000000
O    -3.378000000    -3.290000000    -6.692000000
H    -2.436000000    -3.252000000    -6.527000000
H    -3.650000000    -4.136000000    -6.337000000
O    -0.147000000     4.030000000    -9.739000000
H     0.008000000     4.619000000    -9.000000000
H    -0.484000000     3.228000000    -9.340000000
O    -4.751000000    -2.843000000    -9.008000000
H    -5.684000000    -2.650000000    -8.915000000
H    -4.420000000    -2.866000000    -8.111000000
O    -1.846000000     3.372000000    -6.110000000
H    -2.474000000     3.774000000    -5.510000000
H    -1.974000000     2.430000000    -5.996000000
O     0.847000000    -5.339000000    -7.936000000
H     1.011000000    -5.019000000    -8.823000000
H     0.636000000    -4.553000000    -7.432000000
O    -4.243000000     4.368000000    -5.356000000
H    -4.880000000     4.960000000    -5.755000000
H    -4.618000000     4.153000000    -4.502000000
O    -1.982000000    -1.983000000    -8.940000000
H    -2.063000000    -2.856000000    -9.323000000
H    -2.869000000    -1.761000000    -8.659000000
O    -1.170000000     0.561000000    -8.333000000
H    -1.156000000    -0.353000000    -8.615000000
H    -1.328000000     0.518000000    -7.390000000
O    -5.102000000     2.161000000    -6.750000000
H    -4.316000000     2.114000000    -7.294000000
H    -4.959000000     2.921000000    -6.187000000
O    -0.367000000     5.830000000    -7.625000000
H    -0.730000000     6.702000000    -7.468000000
H    -0.313000000     5.433000000    -6.756000000
