218
-1439.83629
C    -0.702000000    -5.096000000    -1.092000000
H    -1.339000000    -5.071000000    -0.212000000
C     0.594000000    -4.649000000    -0.921000000
C     1.498000000    -4.695000000    -2.007000000
H     2.538000000    -4.430000000    -1.832000000
C     1.103000000    -4.126000000     0.449000000
O     0.212000000    -4.591000000     1.530000000
H     0.976000000    -3.033000000     0.434000000
O     2.503000000    -4.510000000     0.669000000
C     3.186000000    -3.481000000     1.176000000
C     3.965000000    -2.714000000     0.260000000
H     3.960000000    -2.934000000    -0.804000000
C     4.501000000    -1.489000000     0.622000000
O     4.957000000    -0.645000000    -0.413000000
C     4.352000000    -1.034000000     1.931000000
C     4.953000000     0.272000000     2.319000000
H     5.330000000     0.171000000     3.339000000
C     4.100000000     1.463000000     2.150000000
C     3.393000000     1.934000000     3.262000000
H     3.606000000     1.395000000     4.181000000
H     5.905000000     0.458000000     1.817000000
C     3.650000000    -1.805000000     2.823000000
H     3.574000000    -1.489000000     3.861000000
C     3.066000000    -3.042000000     2.500000000
C     2.191000000    -3.888000000     3.428000000
H     2.615000000    -3.918000000     4.434000000
H     2.297000000    -4.923000000     3.096000000
C     0.738000000    -3.407000000     3.574000000
C     0.286000000    -2.439000000     4.491000000
H     0.991000000    -2.046000000     5.219000000
C    -0.123000000    -3.852000000     2.623000000
C    -1.439000000    -3.343000000     2.600000000
H    -2.145000000    -3.755000000     1.883000000
C    -1.821000000    -2.340000000     3.523000000
O    -3.115000000    -1.803000000     3.343000000
C    -3.318000000    -0.443000000     2.740000000
C    -4.484000000    -0.546000000     1.756000000
C    -5.454000000     0.477000000     1.725000000
H    -5.392000000     1.266000000     2.471000000
C    -4.583000000    -1.645000000     0.860000000
H    -3.789000000    -2.386000000     0.805000000
O    -3.351000000     0.619000000     3.664000000
H    -2.452000000    -0.304000000     2.076000000
C    -0.946000000    -1.857000000     4.467000000
C    -1.308000000    -0.678000000     5.361000000
H    -0.698000000    -0.727000000     6.266000000
H    -2.276000000    -0.815000000     5.848000000
C    -1.124000000     0.735000000     4.684000000
C     0.087000000     1.432000000     4.839000000
H     0.894000000     1.065000000     5.469000000
C    -2.181000000     1.239000000     3.966000000
C    -1.896000000     2.447000000     3.290000000
H    -2.672000000     2.765000000     2.599000000
C    -0.709000000     3.141000000     3.448000000
O    -0.601000000     4.158000000     2.566000000
C     0.051000000     4.038000000     1.280000000
C    -0.728000000     4.763000000     0.213000000
C    -2.132000000     4.565000000    -0.084000000
H    -2.674000000     3.833000000     0.509000000
C    -0.035000000     5.615000000    -0.583000000
H     1.042000000     5.654000000    -0.438000000
O     1.399000000     4.494000000     1.591000000
H     0.149000000     2.974000000     1.017000000
C     0.308000000     2.634000000     4.190000000
C     1.648000000     3.367000000     4.254000000
H     2.175000000     3.278000000     5.206000000
H     1.643000000     4.459000000     4.232000000
C     2.528000000     3.015000000     3.094000000
C     2.395000000     3.623000000     1.814000000
C     3.145000000     3.187000000     0.721000000
H     2.942000000     3.533000000    -0.289000000
C     4.046000000     2.107000000     0.878000000
O     4.716000000     1.608000000    -0.303000000
C     4.078000000     0.421000000    -0.720000000
H     3.206000000     0.215000000    -0.082000000
C     3.661000000     0.496000000    -2.197000000
C     4.046000000    -0.463000000    -3.087000000
H     4.651000000    -1.321000000    -2.803000000
C     2.848000000     1.539000000    -2.688000000
H     2.574000000     2.321000000    -1.984000000
C     2.389000000     1.725000000    -4.024000000
O     1.665000000     2.830000000    -4.512000000
C     2.839000000     0.729000000    -4.887000000
H     2.669000000     0.746000000    -5.961000000
C     3.687000000    -0.297000000    -4.456000000
O     4.144000000    -1.147000000    -5.436000000
C     4.167000000    -2.496000000    -5.253000000
C     3.019000000    -3.162000000    -4.792000000
H     2.115000000    -2.583000000    -4.622000000
C     5.383000000    -3.124000000    -5.289000000
H     6.353000000    -2.651000000    -5.420000000
C     5.452000000    -4.504000000    -5.090000000
H     6.353000000    -5.100000000    -5.205000000
C     4.254000000    -5.171000000    -4.788000000
H     4.213000000    -6.248000000    -4.651000000
C     3.057000000    -4.559000000    -4.600000000
O     1.903000000    -5.315000000    -4.276000000
C     1.058000000    -5.173000000    -3.247000000
C    -0.245000000    -5.658000000    -3.372000000
H    -0.655000000    -5.999000000    -4.320000000
C    -1.119000000    -5.570000000    -2.283000000
O    -2.475000000    -5.779000000    -2.520000000
C    -3.487000000    -5.521000000    -1.576000000
C    -4.064000000    -4.250000000    -1.685000000
H    -3.670000000    -3.461000000    -2.319000000
C    -3.916000000    -6.405000000    -0.667000000
H    -3.432000000    -7.376000000    -0.603000000
C    -5.009000000    -6.086000000     0.132000000
H    -5.464000000    -6.766000000     0.847000000
C    -5.742000000    -4.848000000     0.020000000
H    -6.560000000    -4.493000000     0.641000000
C    -5.219000000    -3.958000000    -0.969000000
O    -5.685000000    -2.642000000    -1.116000000
C    -5.573000000    -1.639000000    -0.137000000
C    -6.511000000    -0.664000000    -0.176000000
H    -7.151000000    -0.614000000    -1.053000000
C    -6.391000000     0.475000000     0.677000000
O    -7.156000000     1.660000000     0.511000000
C    -6.517000000     2.910000000     0.594000000
C    -5.720000000     3.404000000    -0.474000000
H    -5.624000000     2.656000000    -1.257000000
C    -6.630000000     3.749000000     1.670000000
H    -7.284000000     3.462000000     2.490000000
C    -5.951000000     5.019000000     1.814000000
H    -6.175000000     5.582000000     2.717000000
C    -5.162000000     5.456000000     0.778000000
H    -4.660000000     6.416000000     0.857000000
C    -5.063000000     4.614000000    -0.393000000
O    -4.088000000     5.018000000    -1.371000000
C    -2.765000000     5.147000000    -1.127000000
C    -2.082000000     6.102000000    -1.864000000
H    -2.538000000     6.749000000    -2.609000000
C    -0.714000000     6.236000000    -1.701000000
O     0.099000000     6.816000000    -2.652000000
C     1.119000000     6.084000000    -3.255000000
C     2.401000000     6.673000000    -3.389000000
H     2.467000000     7.707000000    -3.061000000
C     3.494000000     5.990000000    -3.845000000
H     4.411000000     6.540000000    -4.041000000
C     3.252000000     4.612000000    -4.169000000
H     4.022000000     4.004000000    -4.638000000
C     1.971000000     4.026000000    -4.071000000
C     0.859000000     4.763000000    -3.623000000
H    -0.152000000     4.384000000    -3.751000000
C    -2.012000000    -0.803000000    -1.885000000
H    -3.009000000    -0.558000000    -2.241000000
C    -1.530000000    -0.369000000    -0.656000000
H    -2.212000000     0.124000000     0.032000000
C    -0.223000000    -0.620000000    -0.248000000
C     0.266000000    -0.281000000     1.138000000
H    -0.086000000     0.690000000     1.493000000
H    -0.007000000    -1.124000000     1.777000000
H     1.342000000    -0.112000000     1.059000000
C     0.665000000    -1.228000000    -1.122000000
H     1.713000000    -1.285000000    -0.842000000
C     0.198000000    -1.630000000    -2.365000000
H     0.833000000    -2.156000000    -3.072000000
C    -1.116000000    -1.420000000    -2.738000000
C    -1.580000000    -1.705000000    -4.206000000
O    -0.724000000    -2.018000000    -4.960000000
O    -2.734000000    -1.640000000    -4.536000000
O     0.439000000    -2.327000000    -8.959000000
H     0.254000000    -2.066000000    -9.861000000
H     0.019000000    -3.181000000    -8.865000000
O    -3.697000000    -4.086000000    -4.761000000
H    -3.522000000    -3.145000000    -4.724000000
H    -3.455000000    -4.408000000    -3.892000000
O    -5.838000000     1.977000000    -7.806000000
H    -4.932000000     1.763000000    -7.580000000
H    -5.840000000     2.027000000    -8.762000000
O    -3.115000000     2.491000000    -5.147000000
H    -3.506000000     1.651000000    -5.386000000
H    -2.179000000     2.376000000    -5.314000000
O    -7.329000000    -1.214000000    -4.338000000
H    -6.481000000    -0.918000000    -4.667000000
H    -7.673000000    -0.464000000    -3.853000000
O    -4.913000000    -0.444000000    -5.287000000
H    -4.114000000    -0.759000000    -4.863000000
H    -4.989000000    -0.976000000    -6.079000000
O    -3.337000000    -5.165000000    -7.302000000
H    -3.490000000    -4.967000000    -6.378000000
H    -3.480000000    -4.332000000    -7.752000000
O    -0.479000000    -4.051000000    -6.622000000
H    -0.500000000    -4.914000000    -6.208000000
H    -0.494000000    -3.434000000    -5.891000000
O    -6.684000000    -4.109000000    -5.876000000
H    -7.172000000    -3.377000000    -5.498000000
H    -5.803000000    -4.024000000    -5.511000000
O     0.987000000    -0.932000000    -6.729000000
H     0.699000000    -1.431000000    -7.493000000
H     0.383000000    -1.189000000    -6.033000000
O     3.269000000    -0.982000000    -8.382000000
H     2.329000000    -0.899000000    -8.541000000
H     3.365000000    -0.855000000    -7.438000000
O    -0.522000000     1.924000000    -6.520000000
H    -0.004000000     2.665000000    -6.834000000
H     0.080000000     1.181000000    -6.548000000
O     0.127000000    -7.129000000    -6.488000000
H     1.023000000    -7.464000000    -6.433000000
H    -0.151000000    -7.335000000    -7.380000000
O    -2.979000000    -1.198000000    -7.403000000
H    -2.821000000    -0.267000000    -7.558000000
H    -2.794000000    -1.321000000    -6.472000000
O    -6.840000000     1.398000000    -3.325000000
H    -5.934000000     1.291000000    -3.612000000
H    -7.149000000     2.176000000    -3.791000000
O    -2.770000000    -2.265000000    -9.846000000
H    -3.174000000    -1.896000000    -9.061000000
H    -1.887000000    -2.511000000    -9.569000000
O    -5.528000000    -3.755000000    -8.737000000
H    -5.831000000    -3.346000000    -7.926000000
H    -6.263000000    -3.661000000    -9.342000000
O    -3.024000000     1.449000000    -7.995000000
H    -2.180000000     1.751000000    -7.659000000
H    -2.896000000     1.385000000    -8.942000000
O    -0.969000000    -4.666000000    -9.124000000
H    -0.731000000    -4.748000000    -8.200000000
H    -0.449000000    -5.338000000    -9.565000000
