218
-1458.59483
C    -3.649000000    -4.110000000     0.187000000
H    -4.154000000    -3.376000000     0.809000000
C    -2.419000000    -4.587000000     0.571000000
C    -1.708000000    -5.521000000    -0.197000000
H    -0.716000000    -5.933000000    -0.027000000
C    -1.711000000    -3.963000000     1.748000000
O    -2.601000000    -3.569000000     2.746000000
H    -1.268000000    -3.051000000     1.322000000
O    -0.607000000    -4.828000000     2.207000000
C     0.629000000    -4.145000000     2.389000000
C     1.506000000    -4.073000000     1.310000000
H     1.252000000    -4.812000000     0.555000000
C     2.665000000    -3.310000000     1.387000000
O     3.518000000    -3.191000000     0.300000000
C     2.973000000    -2.560000000     2.548000000
C     4.301000000    -1.828000000     2.657000000
H     4.565000000    -1.773000000     3.715000000
C     4.210000000    -0.427000000     2.094000000
C     4.043000000     0.663000000     3.013000000
H     3.818000000     0.437000000     4.053000000
H     5.047000000    -2.411000000     2.113000000
C     1.988000000    -2.552000000     3.539000000
H     2.278000000    -1.995000000     4.427000000
C     0.815000000    -3.334000000     3.535000000
C    -0.257000000    -3.302000000     4.625000000
H     0.232000000    -3.226000000     5.598000000
H    -0.904000000    -4.182000000     4.633000000
C    -1.147000000    -2.136000000     4.337000000
C    -0.841000000    -0.868000000     4.733000000
H     0.013000000    -0.741000000     5.393000000
C    -2.287000000    -2.358000000     3.452000000
C    -3.094000000    -1.287000000     3.219000000
H    -3.943000000    -1.399000000     2.550000000
C    -2.750000000    -0.057000000     3.623000000
O    -3.427000000     1.033000000     3.098000000
C    -2.712000000     1.958000000     2.258000000
C    -3.530000000     2.317000000     1.054000000
C    -3.608000000     3.612000000     0.610000000
H    -3.276000000     4.449000000     1.218000000
C    -3.966000000     1.296000000     0.224000000
H    -3.765000000     0.252000000     0.446000000
O    -2.235000000     3.148000000     2.958000000
H    -1.872000000     1.499000000     1.716000000
C    -1.722000000     0.179000000     4.472000000
C    -1.334000000     1.519000000     5.008000000
H    -0.799000000     1.350000000     5.944000000
H    -2.145000000     2.148000000     5.381000000
C    -0.398000000     2.296000000     4.124000000
C     0.975000000     2.365000000     4.268000000
H     1.427000000     1.612000000     4.910000000
C    -0.982000000     3.216000000     3.269000000
C    -0.186000000     4.034000000     2.467000000
H    -0.757000000     4.592000000     1.730000000
C     1.221000000     4.031000000     2.571000000
O     2.016000000     4.601000000     1.657000000
C     2.410000000     3.764000000     0.503000000
C     2.055000000     4.390000000    -0.815000000
C     1.153000000     5.487000000    -0.826000000
H     0.818000000     5.943000000     0.102000000
C     2.563000000     3.809000000    -2.046000000
H     3.326000000     3.047000000    -1.912000000
O     3.764000000     3.445000000     0.632000000
H     1.886000000     2.802000000     0.604000000
C     1.825000000     3.150000000     3.445000000
C     3.310000000     2.965000000     3.526000000
H     3.499000000     2.620000000     4.545000000
H     3.836000000     3.890000000     3.280000000
C     3.757000000     1.925000000     2.511000000
C     4.087000000     2.214000000     1.176000000
C     4.394000000     1.190000000     0.287000000
H     4.688000000     1.479000000    -0.719000000
C     4.482000000    -0.083000000     0.785000000
O     4.682000000    -1.163000000    -0.116000000
C     3.545000000    -1.982000000    -0.436000000
H     2.616000000    -1.445000000    -0.193000000
C     3.411000000    -2.371000000    -1.897000000
C     2.859000000    -3.565000000    -2.321000000
H     2.679000000    -4.354000000    -1.596000000
C     3.778000000    -1.428000000    -2.839000000
H     4.249000000    -0.517000000    -2.480000000
C     3.527000000    -1.724000000    -4.215000000
O     3.900000000    -0.787000000    -5.114000000
C     3.035000000    -2.931000000    -4.679000000
H     2.965000000    -3.175000000    -5.736000000
C     2.670000000    -3.840000000    -3.670000000
O     2.173000000    -5.016000000    -4.048000000
C     1.593000000    -5.876000000    -3.185000000
C     0.228000000    -6.042000000    -3.151000000
H    -0.339000000    -5.265000000    -3.657000000
C     2.411000000    -6.669000000    -2.364000000
H     3.469000000    -6.419000000    -2.331000000
C     1.907000000    -7.633000000    -1.481000000
H     2.505000000    -8.155000000    -0.738000000
C     0.524000000    -7.854000000    -1.527000000
H     0.109000000    -8.624000000    -0.881000000
C    -0.338000000    -7.038000000    -2.332000000
O    -1.686000000    -7.057000000    -2.078000000
C    -2.369000000    -6.107000000    -1.323000000
C    -3.572000000    -5.612000000    -1.767000000
H    -3.922000000    -6.057000000    -2.695000000
C    -4.261000000    -4.676000000    -0.988000000
O    -5.410000000    -4.183000000    -1.389000000
C    -5.955000000    -2.921000000    -1.187000000
C    -5.110000000    -1.794000000    -1.366000000
H    -4.060000000    -1.801000000    -1.647000000
C    -7.284000000    -2.718000000    -0.881000000
H    -7.926000000    -3.569000000    -0.670000000
C    -7.825000000    -1.396000000    -0.809000000
H    -8.882000000    -1.409000000    -0.559000000
C    -7.040000000    -0.357000000    -1.040000000
H    -7.430000000     0.649000000    -1.173000000
C    -5.699000000    -0.532000000    -1.441000000
O    -4.971000000     0.553000000    -1.874000000
C    -4.405000000     1.526000000    -1.104000000
C    -4.492000000     2.903000000    -1.508000000
H    -4.827000000     3.090000000    -2.525000000
C    -4.107000000     3.895000000    -0.646000000
O    -4.298000000     5.168000000    -1.139000000
C    -3.396000000     6.138000000    -0.893000000
C    -2.199000000     6.136000000    -1.563000000
H    -1.830000000     5.377000000    -2.249000000
C    -3.749000000     7.264000000    -0.187000000
H    -4.713000000     7.316000000     0.313000000
C    -2.873000000     8.342000000    -0.077000000
H    -3.073000000     9.167000000     0.602000000
C    -1.630000000     8.253000000    -0.679000000
H    -1.021000000     9.152000000    -0.626000000
C    -1.277000000     7.158000000    -1.458000000
O    -0.077000000     7.054000000    -2.130000000
C     0.690000000     5.919000000    -2.078000000
C     1.088000000     5.351000000    -3.215000000
H     0.674000000     5.720000000    -4.150000000
C     1.997000000     4.319000000    -3.204000000
O     2.314000000     3.760000000    -4.421000000
C     3.293000000     2.810000000    -4.616000000
C     4.571000000     3.274000000    -4.457000000
H     4.646000000     4.341000000    -4.263000000
C     5.668000000     2.443000000    -4.668000000
H     6.711000000     2.719000000    -4.537000000
C     5.432000000     1.089000000    -4.963000000
H     6.283000000     0.413000000    -4.999000000
C     4.131000000     0.590000000    -4.902000000
C     3.058000000     1.434000000    -4.706000000
H     2.057000000     1.010000000    -4.737000000
C    -0.830000000     2.090000000    -2.047000000
H    -1.087000000     3.107000000    -2.331000000
C    -0.431000000     1.734000000    -0.743000000
H    -0.545000000     2.491000000     0.030000000
C     0.021000000     0.489000000    -0.445000000
C     0.311000000     0.168000000     1.029000000
H     0.690000000     0.978000000     1.655000000
H    -0.599000000    -0.165000000     1.533000000
H     1.082000000    -0.599000000     1.121000000
C     0.041000000    -0.500000000    -1.463000000
H     0.309000000    -1.531000000    -1.249000000
C    -0.423000000    -0.232000000    -2.768000000
H    -0.361000000    -0.940000000    -3.591000000
C    -0.827000000     1.120000000    -3.030000000
C    -1.342000000     1.468000000    -4.380000000
O    -1.022000000     0.784000000    -5.335000000
O    -1.910000000     2.512000000    -4.537000000
O    -1.041000000     4.141000000    -6.466000000
H    -1.142000000     3.456000000    -5.805000000
H    -0.217000000     3.931000000    -6.905000000
O     0.350000000     5.025000000    -8.885000000
H     0.858000000     4.255000000    -8.630000000
H     0.339000000     5.000000000    -9.841000000
O    -4.248000000     1.060000000    -4.790000000
H    -3.519000000     1.666000000    -4.924000000
H    -4.534000000     1.225000000    -3.891000000
O    -5.812000000    -3.157000000    -5.977000000
H    -5.724000000    -2.225000000    -5.777000000
H    -6.735000000    -3.350000000    -5.814000000
O    -5.674000000     5.189000000    -3.769000000
H    -5.650000000     6.140000000    -3.874000000
H    -4.800000000     4.897000000    -4.029000000
O    -2.783000000    -3.907000000    -4.163000000
H    -3.719000000    -4.071000000    -4.052000000
H    -2.740000000    -3.104000000    -4.683000000
O     1.964000000     3.027000000    -7.946000000
H     2.878000000     3.027000000    -8.233000000
H     1.715000000     2.103000000    -7.942000000
O    -0.587000000    -1.014000000    -9.526000000
H    -1.439000000    -1.361000000    -9.261000000
H    -0.247000000    -1.661000000   -10.144000000
O    -2.538000000     3.242000000    -9.847000000
H    -3.029000000     4.044000000   -10.026000000
H    -3.110000000     2.734000000    -9.273000000
O    -6.530000000     4.506000000    -6.514000000
H    -5.741000000     4.467000000    -5.974000000
H    -7.250000000     4.533000000    -5.883000000
O     0.308000000     6.924000000    -6.884000000
H     0.172000000     6.209000000    -7.506000000
H    -0.493000000     6.941000000    -6.360000000
O    -2.757000000    -2.192000000    -8.077000000
H    -2.672000000    -2.144000000    -7.124000000
H    -3.696000000    -2.297000000    -8.228000000
O     0.845000000     0.606000000    -7.687000000
H     0.179000000     0.291000000    -8.298000000
H     0.353000000     0.851000000    -6.903000000
O    -2.720000000     0.800000000    -7.442000000
H    -2.304000000     1.392000000    -6.815000000
H    -2.649000000    -0.065000000    -7.039000000
O    -3.041000000     5.880000000    -7.816000000
H    -2.607000000     5.079000000    -7.522000000
H    -3.444000000     5.641000000    -8.651000000
O    -3.386000000     4.505000000    -5.125000000
H    -2.762000000     5.095000000    -5.549000000
H    -2.852000000     3.773000000    -4.818000000
O    -5.366000000     0.419000000    -8.650000000
H    -5.300000000    -0.416000000    -9.112000000
H    -4.461000000     0.651000000    -8.444000000
O    -2.628000000    -1.269000000    -5.459000000
H    -1.786000000    -0.815000000    -5.424000000
H    -3.270000000    -0.599000000    -5.224000000
O     3.598000000     0.045000000    -8.344000000
H     3.957000000    -0.472000000    -7.623000000
H     2.782000000     0.405000000    -7.997000000
