218
-1458.66443
C    -3.554000000    -3.834000000    -0.902000000
H    -4.301000000    -3.512000000    -0.181000000
C    -2.258000000    -4.143000000    -0.540000000
C    -1.395000000    -4.502000000    -1.566000000
H    -0.384000000    -4.794000000    -1.291000000
C    -1.689000000    -3.848000000     0.893000000
O    -2.717000000    -3.903000000     1.888000000
H    -1.228000000    -2.850000000     0.929000000
O    -0.687000000    -4.735000000     1.234000000
C     0.500000000    -4.199000000     1.769000000
C     1.660000000    -4.114000000     1.007000000
H     1.596000000    -4.390000000    -0.042000000
C     2.806000000    -3.467000000     1.480000000
O     3.857000000    -3.251000000     0.627000000
C     2.768000000    -3.002000000     2.831000000
C     4.001000000    -2.300000000     3.374000000
H     4.028000000    -2.384000000     4.462000000
C     3.898000000    -0.835000000     2.990000000
C     3.223000000    -0.018000000     3.896000000
H     2.914000000    -0.444000000     4.847000000
H     4.923000000    -2.693000000     2.941000000
C     1.659000000    -3.164000000     3.621000000
H     1.674000000    -2.893000000     4.673000000
C     0.520000000    -3.764000000     3.103000000
C    -0.764000000    -3.823000000     3.944000000
H    -0.444000000    -3.763000000     4.986000000
H    -1.265000000    -4.786000000     3.824000000
C    -1.815000000    -2.730000000     3.748000000
C    -1.913000000    -1.627000000     4.667000000
H    -1.324000000    -1.722000000     5.575000000
C    -2.757000000    -2.853000000     2.775000000
C    -3.696000000    -1.889000000     2.609000000
H    -4.450000000    -1.956000000     1.830000000
C    -3.616000000    -0.624000000     3.282000000
O    -4.266000000     0.460000000     2.704000000
C    -3.437000000     1.532000000     2.274000000
C    -3.978000000     2.183000000     0.924000000
C    -3.903000000     3.562000000     0.671000000
H    -3.680000000     4.238000000     1.493000000
C    -4.365000000     1.365000000    -0.132000000
H    -4.375000000     0.280000000    -0.062000000
O    -3.254000000     2.614000000     3.232000000
H    -2.424000000     1.112000000     2.183000000
C    -2.715000000    -0.531000000     4.334000000
C    -2.550000000     0.721000000     5.211000000
H    -2.373000000     0.419000000     6.245000000
H    -3.550000000     1.159000000     5.249000000
C    -1.546000000     1.716000000     4.623000000
C    -0.151000000     1.556000000     4.853000000
H     0.248000000     0.831000000     5.558000000
C    -1.966000000     2.727000000     3.764000000
C    -1.053000000     3.501000000     3.070000000
H    -1.380000000     4.160000000     2.269000000
C     0.325000000     3.419000000     3.361000000
O     1.197000000     4.152000000     2.509000000
C     1.889000000     3.390000000     1.461000000
C     1.857000000     4.079000000     0.037000000
C     0.994000000     5.174000000    -0.244000000
H     0.455000000     5.626000000     0.584000000
C     2.607000000     3.457000000    -0.962000000
H     3.201000000     2.565000000    -0.780000000
O     3.191000000     3.152000000     1.954000000
H     1.301000000     2.482000000     1.264000000
C     0.752000000     2.377000000     4.155000000
C     2.215000000     2.171000000     4.503000000
H     2.266000000     1.690000000     5.482000000
H     2.735000000     3.124000000     4.618000000
C     3.000000000     1.320000000     3.570000000
C     3.516000000     1.858000000     2.345000000
C     4.234000000     1.035000000     1.506000000
H     4.572000000     1.431000000     0.552000000
C     4.355000000    -0.338000000     1.834000000
O     4.868000000    -1.213000000     0.802000000
C     3.898000000    -1.961000000     0.048000000
H     2.909000000    -1.515000000     0.234000000
C     4.254000000    -2.211000000    -1.440000000
C     3.750000000    -3.332000000    -2.141000000
H     3.115000000    -4.034000000    -1.607000000
C     4.950000000    -1.204000000    -2.063000000
H     5.180000000    -0.364000000    -1.412000000
C     5.318000000    -1.387000000    -3.437000000
O     5.843000000    -0.382000000    -4.118000000
C     4.920000000    -2.551000000    -4.135000000
H     5.169000000    -2.734000000    -5.177000000
C     4.079000000    -3.419000000    -3.480000000
O     3.915000000    -4.594000000    -4.232000000
C     2.667000000    -5.201000000    -4.269000000
C     1.436000000    -4.567000000    -4.079000000
H     1.340000000    -3.484000000    -4.068000000
C     2.803000000    -6.560000000    -4.186000000
H     3.733000000    -7.068000000    -4.426000000
C     1.642000000    -7.318000000    -4.058000000
H     1.687000000    -8.403000000    -4.001000000
C     0.441000000    -6.714000000    -3.898000000
H    -0.521000000    -7.217000000    -3.849000000
C     0.312000000    -5.331000000    -3.895000000
O    -0.904000000    -4.712000000    -3.948000000
C    -1.791000000    -4.524000000    -2.911000000
C    -3.151000000    -4.273000000    -3.225000000
H    -3.391000000    -4.012000000    -4.252000000
C    -4.008000000    -4.012000000    -2.194000000
O    -5.308000000    -3.726000000    -2.532000000
C    -5.910000000    -2.521000000    -2.367000000
C    -5.264000000    -1.308000000    -2.568000000
H    -4.205000000    -1.293000000    -2.813000000
C    -7.229000000    -2.455000000    -1.890000000
H    -7.776000000    -3.359000000    -1.633000000
C    -7.893000000    -1.257000000    -1.524000000
H    -8.883000000    -1.335000000    -1.081000000
C    -7.219000000    -0.082000000    -1.736000000
H    -7.695000000     0.866000000    -1.500000000
C    -5.900000000    -0.091000000    -2.276000000
O    -5.157000000     1.031000000    -2.384000000
C    -4.729000000     1.837000000    -1.376000000
C    -4.787000000     3.207000000    -1.565000000
H    -5.111000000     3.655000000    -2.501000000
C    -4.286000000     4.042000000    -0.596000000
O    -4.372000000     5.388000000    -0.768000000
C    -3.294000000     6.231000000    -0.570000000
C    -2.046000000     5.983000000    -1.167000000
H    -1.873000000     5.018000000    -1.636000000
C    -3.415000000     7.405000000     0.166000000
H    -4.356000000     7.535000000     0.694000000
C    -2.521000000     8.449000000     0.049000000
H    -2.799000000     9.431000000     0.423000000
C    -1.326000000     8.195000000    -0.623000000
H    -0.636000000     9.020000000    -0.780000000
C    -1.097000000     6.980000000    -1.155000000
O     0.077000000     6.767000000    -1.858000000
C     0.922000000     5.674000000    -1.566000000
C     1.689000000     5.061000000    -2.519000000
H     1.762000000     5.455000000    -3.530000000
C     2.507000000     3.967000000    -2.255000000
O     3.004000000     3.404000000    -3.401000000
C     4.209000000     2.783000000    -3.418000000
C     5.301000000     3.562000000    -3.236000000
H     5.104000000     4.585000000    -2.928000000
C     6.609000000     3.110000000    -3.350000000
H     7.388000000     3.866000000    -3.305000000
C     6.788000000     1.720000000    -3.606000000
H     7.787000000     1.403000000    -3.895000000
C     5.708000000     0.930000000    -3.811000000
C     4.433000000     1.414000000    -3.732000000
H     3.625000000     0.731000000    -3.979000000
C    -0.337000000     1.110000000    -2.226000000
H    -0.623000000     1.946000000    -2.859000000
C    -0.312000000     1.223000000    -0.815000000
H    -0.629000000     2.184000000    -0.417000000
C     0.092000000     0.070000000    -0.096000000
C     0.023000000     0.052000000     1.361000000
H     0.972000000    -0.185000000     1.847000000
H    -0.358000000     1.026000000     1.677000000
H    -0.724000000    -0.620000000     1.788000000
C     0.287000000    -1.123000000    -0.739000000
H     0.522000000    -2.017000000    -0.166000000
C     0.218000000    -1.195000000    -2.148000000
H     0.323000000    -2.211000000    -2.521000000
C    -0.091000000    -0.117000000    -2.875000000
C    -0.096000000    -0.207000000    -4.379000000
O     0.058000000    -1.357000000    -4.816000000
O    -0.224000000     0.823000000    -5.057000000
O     2.172000000     1.553000000    -5.990000000
H     1.386000000     1.202000000    -5.573000000
H     2.175000000     2.481000000    -5.754000000
O    -1.228000000    -5.232000000    -7.138000000
H    -0.505000000    -5.855000000    -7.208000000
H    -0.938000000    -4.601000000    -6.479000000
O    -1.544000000    -1.396000000    -6.845000000
H    -1.366000000    -0.582000000    -7.315000000
H    -0.960000000    -1.368000000    -6.087000000
O    -3.968000000    -2.573000000    -7.289000000
H    -3.161000000    -2.123000000    -7.041000000
H    -4.428000000    -2.715000000    -6.462000000
O     1.779000000     4.277000000    -6.065000000
H     1.162000000     4.839000000    -5.597000000
H     2.051000000     4.798000000    -6.821000000
O     2.960000000    -4.411000000    -7.627000000
H     2.477000000    -3.654000000    -7.297000000
H     3.289000000    -4.132000000    -8.481000000
O     5.173000000    -0.718000000    -7.786000000
H     6.033000000    -0.299000000    -7.766000000
H     4.705000000    -0.342000000    -7.041000000
O    -0.652000000    -1.803000000    -9.614000000
H    -1.301000000    -1.099000000    -9.638000000
H    -0.134000000    -1.624000000    -8.830000000
O    -3.979000000     4.668000000    -5.439000000
H    -4.499000000     4.372000000    -6.186000000
H    -3.538000000     3.879000000    -5.126000000
O    -0.910000000     3.739000000    -8.169000000
H    -0.088000000     4.089000000    -8.513000000
H    -1.375000000     4.505000000    -7.833000000
O     2.170000000    -0.092000000    -8.173000000
H     2.039000000     0.510000000    -8.905000000
H     2.330000000     0.477000000    -7.420000000
O    -0.798000000     1.186000000    -7.608000000
H    -0.661000000     1.156000000    -6.661000000
H    -0.965000000     2.109000000    -7.797000000
O    -0.508000000     1.554000000   -10.473000000
H     0.445000000     1.525000000   -10.555000000
H    -0.669000000     1.503000000    -9.531000000
O    -3.057000000     0.181000000    -9.111000000
H    -2.421000000     0.529000000    -8.487000000
H    -3.587000000    -0.429000000    -8.598000000
O    -2.047000000     2.686000000    -4.815000000
H    -2.778000000     2.108000000    -5.033000000
H    -1.276000000     2.119000000    -4.847000000
O    -4.613000000     1.126000000    -5.185000000
H    -5.023000000     1.031000000    -4.325000000
H    -4.970000000     0.404000000    -5.702000000
O    -5.263000000     3.043000000    -7.253000000
H    -6.220000000     3.050000000    -7.248000000
H    -5.024000000     2.508000000    -6.496000000
O     1.827000000    -2.304000000    -6.389000000
H     1.167000000    -1.995000000    -5.768000000
H     1.806000000    -1.664000000    -7.100000000
O    -0.618000000     5.440000000    -5.392000000
H    -0.814000000     5.443000000    -6.329000000
H    -1.184000000     4.758000000    -5.030000000
