218
-1487.32911
C    -3.536000000    -3.412000000    -1.922000000
H    -4.277000000    -2.751000000    -1.479000000
C    -2.444000000    -3.849000000    -1.168000000
C    -1.416000000    -4.559000000    -1.834000000
H    -0.563000000    -4.838000000    -1.220000000
C    -2.241000000    -3.500000000     0.386000000
O    -3.527000000    -3.323000000     1.069000000
H    -1.692000000    -2.548000000     0.376000000
O    -1.490000000    -4.611000000     1.073000000
C    -0.535000000    -4.139000000     1.967000000
C     0.795000000    -4.164000000     1.499000000
H     1.055000000    -4.602000000     0.538000000
C     1.816000000    -3.504000000     2.168000000
O     3.003000000    -3.426000000     1.452000000
C     1.515000000    -2.977000000     3.439000000
C     2.608000000    -2.327000000     4.266000000
H     2.301000000    -2.342000000     5.314000000
C     2.941000000    -0.888000000     3.800000000
C     2.389000000     0.191000000     4.511000000
H     1.852000000    -0.037000000     5.429000000
H     3.566000000    -2.851000000     4.267000000
C     0.196000000    -3.029000000     3.963000000
H     0.030000000    -2.673000000     4.977000000
C    -0.812000000    -3.616000000     3.219000000
C    -2.290000000    -3.520000000     3.672000000
H    -2.315000000    -3.469000000     4.763000000
H    -2.851000000    -4.436000000     3.478000000
C    -2.925000000    -2.232000000     3.177000000
C    -3.027000000    -1.077000000     3.933000000
H    -2.738000000    -1.089000000     4.980000000
C    -3.515000000    -2.212000000     1.908000000
C    -4.184000000    -1.075000000     1.455000000
H    -4.636000000    -1.105000000     0.467000000
C    -4.151000000     0.092000000     2.146000000
O    -4.766000000     1.202000000     1.559000000
C    -3.845000000     2.107000000     0.959000000
C    -4.294000000     2.595000000    -0.485000000
C    -3.797000000     3.851000000    -0.928000000
H    -3.275000000     4.464000000    -0.199000000
C    -4.964000000     1.787000000    -1.452000000
H    -5.213000000     0.773000000    -1.147000000
O    -3.426000000     3.097000000     1.909000000
H    -2.905000000     1.586000000     0.726000000
C    -3.526000000     0.149000000     3.447000000
C    -3.441000000     1.428000000     4.246000000
H    -3.317000000     1.227000000     5.312000000
H    -4.430000000     1.887000000     4.194000000
C    -2.245000000     2.239000000     3.712000000
C    -0.987000000     2.104000000     4.393000000
H    -0.883000000     1.353000000     5.172000000
C    -2.293000000     3.030000000     2.556000000
C    -1.125000000     3.596000000     2.064000000
H    -1.136000000     4.197000000     1.158000000
C     0.086000000     3.520000000     2.712000000
O     1.205000000     4.025000000     2.124000000
C     2.072000000     3.201000000     1.398000000
C     2.412000000     3.909000000     0.029000000
C     1.667000000     4.931000000    -0.508000000
H     0.751000000     5.263000000    -0.026000000
C     3.595000000     3.552000000    -0.612000000
H     4.136000000     2.712000000    -0.184000000
O     3.182000000     2.957000000     2.313000000
H     1.538000000     2.268000000     1.165000000
C     0.214000000     2.742000000     3.917000000
C     1.514000000     2.530000000     4.669000000
H     1.441000000     2.287000000     5.731000000
H     2.048000000     3.483000000     4.668000000
C     2.390000000     1.490000000     4.017000000
C     3.187000000     1.763000000     2.934000000
C     3.923000000     0.737000000     2.292000000
H     4.525000000     0.911000000     1.403000000
C     3.758000000    -0.591000000     2.706000000
O     4.291000000    -1.649000000     1.955000000
C     3.461000000    -2.214000000     0.963000000
H     2.612000000    -1.529000000     0.817000000
C     4.236000000    -2.531000000    -0.283000000
C     3.973000000    -3.701000000    -0.976000000
H     3.341000000    -4.498000000    -0.594000000
C     5.057000000    -1.561000000    -0.840000000
H     5.086000000    -0.585000000    -0.363000000
C     5.725000000    -1.818000000    -1.974000000
O     6.448000000    -0.898000000    -2.608000000
C     5.502000000    -3.016000000    -2.693000000
H     5.832000000    -3.126000000    -3.723000000
C     4.545000000    -3.908000000    -2.215000000
O     4.341000000    -5.068000000    -2.872000000
C     3.148000000    -5.730000000    -2.813000000
C     2.021000000    -5.152000000    -3.465000000
H     2.059000000    -4.273000000    -4.103000000
C     3.007000000    -6.886000000    -2.073000000
H     3.904000000    -7.238000000    -1.571000000
C     1.787000000    -7.522000000    -2.002000000
H     1.706000000    -8.499000000    -1.531000000
C     0.652000000    -6.974000000    -2.674000000
H    -0.348000000    -7.401000000    -2.705000000
C     0.796000000    -5.772000000    -3.379000000
O    -0.294000000    -5.159000000    -3.965000000
C    -1.397000000    -4.691000000    -3.213000000
C    -2.458000000    -4.132000000    -3.946000000
H    -2.544000000    -4.437000000    -4.986000000
C    -3.575000000    -3.581000000    -3.284000000
O    -4.526000000    -3.067000000    -4.055000000
C    -5.470000000    -2.136000000    -3.639000000
C    -5.220000000    -0.793000000    -3.872000000
H    -4.379000000    -0.480000000    -4.485000000
C    -6.501000000    -2.587000000    -2.843000000
H    -6.683000000    -3.609000000    -2.519000000
C    -7.526000000    -1.707000000    -2.538000000
H    -8.444000000    -2.082000000    -2.094000000
C    -7.329000000    -0.373000000    -2.803000000
H    -8.008000000     0.391000000    -2.434000000
C    -6.161000000     0.129000000    -3.439000000
O    -5.966000000     1.452000000    -3.608000000
C    -5.262000000     2.251000000    -2.748000000
C    -4.900000000     3.543000000    -3.088000000
H    -5.132000000     3.960000000    -4.065000000
C    -4.097000000     4.297000000    -2.246000000
O    -3.568000000     5.530000000    -2.680000000
C    -2.496000000     6.194000000    -2.143000000
C    -1.180000000     5.983000000    -2.601000000
H    -0.902000000     5.263000000    -3.366000000
C    -2.747000000     7.128000000    -1.204000000
H    -3.759000000     7.333000000    -0.864000000
C    -1.713000000     7.778000000    -0.588000000
H    -1.846000000     8.495000000     0.218000000
C    -0.365000000     7.520000000    -0.892000000
H     0.450000000     8.041000000    -0.396000000
C    -0.111000000     6.651000000    -1.968000000
O     1.143000000     6.358000000    -2.419000000
C     2.041000000     5.610000000    -1.646000000
C     3.365000000     5.314000000    -2.150000000
H     3.671000000     5.839000000    -3.051000000
C     4.062000000     4.208000000    -1.752000000
O     5.282000000     3.837000000    -2.419000000
C     5.963000000     2.750000000    -1.916000000
C     6.771000000     2.862000000    -0.704000000
H     6.761000000     3.857000000    -0.267000000
C     7.565000000     1.802000000    -0.320000000
H     8.281000000     1.854000000     0.496000000
C     7.577000000     0.622000000    -1.094000000
H     8.199000000    -0.223000000    -0.808000000
C     6.636000000     0.434000000    -2.142000000
C     5.876000000     1.519000000    -2.535000000
H     5.077000000     1.317000000    -3.244000000
C    -1.447000000     0.609000000    -2.221000000
H    -2.066000000     1.325000000    -2.757000000
C    -1.028000000     0.765000000    -0.908000000
H    -1.242000000     1.615000000    -0.266000000
C    -0.295000000    -0.250000000    -0.294000000
C     0.038000000    -0.207000000     1.224000000
H     1.106000000    -0.070000000     1.407000000
H    -0.538000000     0.661000000     1.552000000
H    -0.307000000    -1.048000000     1.829000000
C     0.116000000    -1.307000000    -1.092000000
H     0.782000000    -2.077000000    -0.712000000
C    -0.217000000    -1.484000000    -2.437000000
H     0.078000000    -2.329000000    -3.054000000
C    -0.995000000    -0.504000000    -2.986000000
C    -1.456000000    -0.571000000    -4.456000000
O    -1.060000000    -1.519000000    -5.180000000
O    -2.213000000     0.261000000    -4.940000000
O    -3.129000000     1.406000000    -7.218000000
H    -2.569000000     0.982000000    -7.870000000
H    -2.838000000     1.044000000    -6.381000000
O    -1.725000000    -4.724000000    -7.502000000
H    -2.030000000    -5.419000000    -8.084000000
H    -2.346000000    -4.008000000    -7.637000000
O     0.283000000    -2.859000000    -9.286000000
H     0.243000000    -3.732000000    -9.676000000
H     1.214000000    -2.640000000    -9.281000000
O    -0.334000000    -6.984000000    -6.344000000
H    -1.046000000    -7.004000000    -6.984000000
H    -0.079000000    -6.063000000    -6.298000000
O    -0.621000000    -0.817000000    -8.039000000
H    -0.870000000    -1.166000000    -7.183000000
H    -0.295000000    -1.577000000    -8.522000000
O     2.315000000    -5.167000000    -7.225000000
H     1.607000000    -4.587000000    -6.946000000
H     3.081000000    -4.862000000    -6.739000000
O    -5.389000000    -4.974000000    -6.194000000
H    -5.295000000    -4.231000000    -5.598000000
H    -4.829000000    -4.755000000    -6.939000000
O     1.197000000     2.227000000    -6.848000000
H     1.419000000     3.044000000    -7.296000000
H     0.557000000     2.484000000    -6.185000000
O    -3.133000000    -2.379000000    -6.585000000
H    -2.310000000    -2.207000000    -6.127000000
H    -3.813000000    -2.155000000    -5.950000000
O    -1.820000000     4.244000000    -6.989000000
H    -2.268000000     3.404000000    -7.090000000
H    -1.015000000     4.031000000    -6.518000000
O     0.797000000     2.735000000    -2.734000000
H     1.485000000     3.082000000    -3.303000000
H     0.986000000     1.799000000    -2.675000000
O    -0.561000000     1.676000000    -8.921000000
H    -0.506000000     0.737000000    -8.743000000
H     0.032000000     2.075000000    -8.285000000
O     0.360000000    -3.634000000    -6.233000000
H     0.096000000    -2.874000000    -5.715000000
H    -0.397000000    -3.819000000    -6.789000000
O    -6.002000000     1.375000000    -6.693000000
H    -5.103000000     1.366000000    -7.020000000
H    -5.910000000     1.378000000    -5.740000000
O     4.747000000    -1.179000000    -7.306000000
H     3.823000000    -0.929000000    -7.328000000
H     5.176000000    -0.467000000    -6.830000000
O    -4.500000000    -4.361000000    -8.817000000
H    -4.621000000    -4.874000000    -9.616000000
H    -3.994000000    -3.598000000    -9.097000000
O     2.090000000    -0.295000000    -7.355000000
H     2.024000000     0.654000000    -7.460000000
H     1.182000000    -0.596000000    -7.329000000
O     2.689000000     2.137000000    -4.457000000
H     2.490000000     2.013000000    -5.385000000
H     3.631000000     2.302000000    -4.435000000
O    -0.874000000     2.605000000    -5.182000000
H    -1.282000000     1.739000000    -5.157000000
H    -0.403000000     2.672000000    -4.352000000
