218
-1469.50415
C    -3.215000000    -3.901000000    -1.715000000
H    -3.851000000    -3.098000000    -1.351000000
C    -2.220000000    -4.386000000    -0.854000000
C    -1.264000000    -5.240000000    -1.386000000
H    -0.531000000    -5.523000000    -0.634000000
C    -2.128000000    -3.730000000     0.603000000
O    -3.440000000    -3.508000000     1.170000000
H    -1.530000000    -2.808000000     0.555000000
O    -1.367000000    -4.666000000     1.404000000
C    -0.433000000    -4.154000000     2.262000000
C     0.876000000    -4.264000000     1.898000000
H     1.107000000    -4.858000000     1.018000000
C     1.872000000    -3.559000000     2.618000000
O     3.092000000    -3.315000000     1.993000000
C     1.578000000    -2.871000000     3.770000000
C     2.628000000    -2.081000000     4.477000000
H     2.380000000    -1.919000000     5.528000000
C     2.735000000    -0.649000000     3.931000000
C     1.947000000     0.348000000     4.485000000
H     1.179000000     0.069000000     5.202000000
H     3.612000000    -2.549000000     4.399000000
C     0.224000000    -2.875000000     4.203000000
H    -0.033000000    -2.212000000     5.025000000
C    -0.780000000    -3.427000000     3.406000000
C    -2.199000000    -3.291000000     3.868000000
H    -2.324000000    -3.123000000     4.940000000
H    -2.760000000    -4.198000000     3.635000000
C    -2.885000000    -2.171000000     3.127000000
C    -2.831000000    -0.931000000     3.687000000
H    -2.282000000    -0.806000000     4.617000000
C    -3.584000000    -2.351000000     1.935000000
C    -4.166000000    -1.265000000     1.258000000
H    -4.645000000    -1.392000000     0.290000000
C    -4.169000000    -0.006000000     1.915000000
O    -4.658000000     1.009000000     1.126000000
C    -3.655000000     1.953000000     0.617000000
C    -4.069000000     2.433000000    -0.799000000
C    -4.000000000     3.751000000    -1.159000000
H    -4.068000000     4.561000000    -0.438000000
C    -4.264000000     1.475000000    -1.786000000
H    -4.324000000     0.408000000    -1.587000000
O    -3.567000000     3.125000000     1.518000000
H    -2.664000000     1.486000000     0.526000000
C    -3.508000000     0.128000000     3.129000000
C    -3.517000000     1.441000000     3.817000000
H    -3.575000000     1.187000000     4.878000000
H    -4.451000000     1.964000000     3.601000000
C    -2.371000000     2.243000000     3.441000000
C    -1.209000000     2.084000000     4.196000000
H    -1.237000000     1.376000000     5.021000000
C    -2.425000000     2.982000000     2.305000000
C    -1.336000000     3.780000000     1.980000000
H    -1.307000000     4.390000000     1.081000000
C    -0.130000000     3.641000000     2.736000000
O     0.947000000     4.394000000     2.284000000
C     1.767000000     3.544000000     1.476000000
C     2.300000000     4.355000000     0.246000000
C     1.405000000     5.120000000    -0.491000000
H     0.348000000     5.052000000    -0.248000000
C     3.665000000     4.302000000    -0.174000000
H     4.265000000     3.527000000     0.296000000
O     2.864000000     3.201000000     2.264000000
H     1.270000000     2.620000000     1.145000000
C    -0.092000000     2.888000000     3.889000000
C     1.221000000     2.692000000     4.699000000
H     1.035000000     2.457000000     5.749000000
H     1.737000000     3.654000000     4.709000000
C     2.063000000     1.630000000     4.032000000
C     2.898000000     1.985000000     2.921000000
C     3.769000000     0.978000000     2.406000000
H     4.550000000     1.112000000     1.661000000
C     3.610000000    -0.263000000     2.908000000
O     4.152000000    -1.299000000     2.130000000
C     3.263000000    -2.081000000     1.286000000
H     2.281000000    -1.586000000     1.257000000
C     3.803000000    -2.203000000    -0.130000000
C     3.813000000    -3.443000000    -0.780000000
H     3.428000000    -4.330000000    -0.283000000
C     4.336000000    -1.059000000    -0.794000000
H     4.319000000    -0.129000000    -0.233000000
C     4.904000000    -1.202000000    -2.044000000
O     5.695000000    -0.212000000    -2.634000000
C     4.819000000    -2.407000000    -2.727000000
H     5.233000000    -2.642000000    -3.704000000
C     4.282000000    -3.529000000    -2.128000000
O     4.148000000    -4.776000000    -2.845000000
C     3.252000000    -5.763000000    -2.458000000
C     1.942000000    -5.551000000    -2.874000000
H     1.716000000    -4.667000000    -3.466000000
C     3.670000000    -7.026000000    -2.004000000
H     4.718000000    -7.219000000    -1.790000000
C     2.750000000    -8.017000000    -1.898000000
H     2.985000000    -8.972000000    -1.434000000
C     1.421000000    -7.748000000    -2.165000000
H     0.618000000    -8.442000000    -1.933000000
C     0.983000000    -6.501000000    -2.657000000
O    -0.254000000    -6.396000000    -3.225000000
C    -1.264000000    -5.636000000    -2.717000000
C    -2.199000000    -5.076000000    -3.568000000
H    -2.299000000    -5.465000000    -4.578000000
C    -3.223000000    -4.251000000    -3.042000000
O    -4.188000000    -3.793000000    -3.949000000
C    -4.968000000    -2.711000000    -3.923000000
C    -4.436000000    -1.454000000    -4.038000000
H    -3.398000000    -1.358000000    -4.346000000
C    -6.308000000    -2.929000000    -3.542000000
H    -6.688000000    -3.945000000    -3.475000000
C    -7.083000000    -1.839000000    -3.315000000
H    -8.126000000    -2.026000000    -3.071000000
C    -6.614000000    -0.530000000    -3.482000000
H    -7.258000000     0.330000000    -3.315000000
C    -5.281000000    -0.319000000    -3.898000000
O    -4.791000000     0.972000000    -4.111000000
C    -4.481000000     1.851000000    -3.140000000
C    -4.270000000     3.183000000    -3.475000000
H    -4.389000000     3.466000000    -4.517000000
C    -3.967000000     4.110000000    -2.497000000
O    -3.816000000     5.395000000    -2.958000000
C    -2.827000000     6.215000000    -2.464000000
C    -1.482000000     5.858000000    -2.680000000
H    -1.264000000     4.990000000    -3.296000000
C    -3.171000000     7.222000000    -1.542000000
H    -4.211000000     7.412000000    -1.289000000
C    -2.141000000     7.976000000    -0.947000000
H    -2.450000000     8.672000000    -0.171000000
C    -0.735000000     7.745000000    -1.265000000
H     0.065000000     8.419000000    -0.970000000
C    -0.419000000     6.671000000    -2.072000000
O     0.937000000     6.440000000    -2.391000000
C     1.829000000     5.799000000    -1.570000000
C     3.141000000     5.563000000    -2.104000000
H     3.469000000     6.014000000    -3.037000000
C     4.061000000     4.834000000    -1.381000000
O     5.279000000     4.532000000    -1.975000000
C     5.859000000     3.298000000    -1.608000000
C     6.984000000     3.297000000    -0.695000000
H     7.331000000     4.196000000    -0.191000000
C     7.600000000     2.025000000    -0.460000000
H     8.377000000     2.034000000     0.300000000
C     7.151000000     0.888000000    -1.090000000
H     7.528000000    -0.098000000    -0.834000000
C     6.094000000     0.932000000    -1.960000000
C     5.385000000     2.140000000    -2.186000000
H     4.536000000     2.179000000    -2.864000000
C     0.146000000     0.763000000    -2.268000000
H     0.179000000     1.703000000    -2.814000000
C     0.006000000     0.825000000    -0.853000000
H    -0.041000000     1.784000000    -0.344000000
C     0.100000000    -0.373000000    -0.085000000
C     0.000000000    -0.224000000     1.353000000
H    -0.994000000     0.084000000     1.684000000
H     0.248000000    -1.128000000     1.913000000
H     0.756000000     0.522000000     1.603000000
C     0.376000000    -1.591000000    -0.733000000
H     0.373000000    -2.459000000    -0.079000000
C     0.366000000    -1.642000000    -2.129000000
H     0.383000000    -2.617000000    -2.610000000
C     0.259000000    -0.498000000    -2.879000000
C     0.275000000    -0.595000000    -4.373000000
O     0.600000000    -1.642000000    -4.871000000
O    -0.007000000     0.302000000    -5.129000000
O    -1.496000000     0.762000000    -7.367000000
H    -0.929000000     0.917000000    -8.122000000
H    -0.900000000     0.480000000    -6.673000000
O    -2.346000000    -5.540000000    -7.464000000
H    -3.139000000    -6.056000000    -7.611000000
H    -2.444000000    -4.781000000    -8.039000000
O     1.699000000    -0.505000000    -7.598000000
H     1.377000000    -0.340000000    -6.712000000
H     1.497000000    -1.427000000    -7.758000000
O     3.185000000     5.062000000    -5.551000000
H     3.888000000     5.604000000    -5.910000000
H     3.560000000     4.183000000    -5.504000000
O     3.652000000    -5.101000000    -5.668000000
H     3.788000000    -5.454000000    -4.789000000
H     4.535000000    -5.004000000    -6.026000000
O     1.609000000    -6.814000000    -5.897000000
H     0.873000000    -6.237000000    -5.690000000
H     2.378000000    -6.247000000    -5.852000000
O     0.905000000     3.295000000    -7.959000000
H     1.747000000     3.708000000    -8.153000000
H     0.930000000     3.132000000    -7.016000000
O     6.092000000    -0.979000000    -6.901000000
H     6.161000000    -0.877000000    -7.850000000
H     5.979000000    -0.088000000    -6.571000000
O    -2.487000000    -3.203000000    -8.956000000
H    -1.817000000    -3.351000000    -9.623000000
H    -2.945000000    -2.414000000    -9.246000000
O    -2.654000000     3.293000000    -6.788000000
H    -3.602000000     3.200000000    -6.880000000
H    -2.351000000     2.421000000    -6.534000000
O     3.601000000     1.871000000    -5.802000000
H     2.684000000     2.145000000    -5.805000000
H     3.570000000     0.930000000    -5.629000000
O     2.483000000    -3.749000000    -7.399000000
H     3.185000000    -4.216000000    -6.946000000
H     1.749000000    -3.763000000    -6.784000000
O     0.739000000     1.055000000    -9.625000000
H     1.228000000     0.475000000    -9.041000000
H     0.800000000     1.917000000    -9.213000000
O     0.003000000    -3.931000000    -6.055000000
H     0.376000000    -3.138000000    -5.669000000
H    -0.893000000    -3.962000000    -5.720000000
O    -4.443000000    -0.158000000    -7.437000000
H    -3.489000000    -0.211000000    -7.376000000
H    -4.696000000     0.424000000    -6.720000000
O     6.334000000     1.520000000    -5.762000000
H     6.516000000     2.444000000    -5.934000000
H     5.433000000     1.511000000    -5.437000000
O     3.546000000    -0.839000000    -5.496000000
H     3.973000000    -1.087000000    -6.316000000
H     2.735000000    -1.346000000    -5.485000000
O     3.853000000     0.979000000    -9.084000000
H     3.320000000     0.819000000    -8.305000000
H     3.901000000     1.933000000    -9.149000000
O     1.236000000     2.566000000    -5.198000000
H     0.698000000     1.775000000    -5.174000000
H     1.023000000     3.025000000    -4.385000000
