218
-1461.58777
C    -3.986000000    -2.787000000    -0.861000000
H    -4.723000000    -2.521000000    -0.107000000
C    -2.738000000    -3.158000000    -0.433000000
C    -1.874000000    -3.491000000    -1.434000000
H    -0.797000000    -3.561000000    -1.307000000
C    -2.300000000    -3.192000000     1.021000000
O    -3.382000000    -3.049000000     1.923000000
H    -1.593000000    -2.353000000     1.106000000
O    -1.674000000    -4.383000000     1.417000000
C    -0.454000000    -4.185000000     2.061000000
C     0.666000000    -4.267000000     1.301000000
H     0.746000000    -4.603000000     0.270000000
C     1.900000000    -3.863000000     1.845000000
O     2.963000000    -3.939000000     0.956000000
C     2.016000000    -3.352000000     3.163000000
C     3.330000000    -2.744000000     3.640000000
H     3.272000000    -2.778000000     4.730000000
C     3.523000000    -1.331000000     3.200000000
C     3.066000000    -0.227000000     3.938000000
H     2.732000000    -0.479000000     4.942000000
H     4.168000000    -3.369000000     3.327000000
C     0.841000000    -3.326000000     3.922000000
H     0.850000000    -2.872000000     4.910000000
C    -0.386000000    -3.691000000     3.367000000
C    -1.683000000    -3.391000000     4.218000000
H    -1.501000000    -3.466000000     5.292000000
H    -2.385000000    -4.195000000     3.986000000
C    -2.372000000    -2.097000000     3.902000000
C    -2.081000000    -0.877000000     4.568000000
H    -1.316000000    -0.697000000     5.318000000
C    -3.353000000    -2.032000000     2.940000000
C    -4.043000000    -0.879000000     2.582000000
H    -4.735000000    -0.746000000     1.755000000
C    -3.613000000     0.309000000     3.176000000
O    -4.076000000     1.531000000     2.731000000
C    -3.224000000     2.277000000     1.805000000
C    -3.907000000     2.763000000     0.486000000
C    -3.294000000     3.894000000    -0.187000000
H    -2.429000000     4.355000000     0.284000000
C    -5.015000000     2.192000000    -0.057000000
H    -5.528000000     1.348000000     0.396000000
O    -2.638000000     3.299000000     2.619000000
H    -2.462000000     1.544000000     1.506000000
C    -2.651000000     0.340000000     4.183000000
C    -2.260000000     1.652000000     4.913000000
H    -1.853000000     1.431000000     5.902000000
H    -3.079000000     2.356000000     5.076000000
C    -1.094000000     2.320000000     4.185000000
C     0.202000000     2.066000000     4.560000000
H     0.358000000     1.346000000     5.360000000
C    -1.326000000     3.121000000     3.042000000
C    -0.281000000     3.730000000     2.393000000
H    -0.570000000     4.118000000     1.419000000
C     1.043000000     3.519000000     2.860000000
O     2.037000000     3.915000000     1.984000000
C     2.548000000     3.036000000     1.017000000
C     2.880000000     3.703000000    -0.302000000
C     2.069000000     4.780000000    -0.658000000
H     1.357000000     5.260000000     0.008000000
C     3.770000000     3.206000000    -1.254000000
H     4.216000000     2.261000000    -0.955000000
O     3.756000000     2.493000000     1.560000000
H     1.867000000     2.209000000     0.769000000
C     1.319000000     2.642000000     3.911000000
C     2.738000000     2.296000000     4.327000000
H     2.756000000     2.006000000     5.379000000
H     3.398000000     3.160000000     4.225000000
C     3.095000000     1.084000000     3.407000000
C     3.671000000     1.320000000     2.205000000
C     4.289000000     0.248000000     1.539000000
H     4.813000000     0.416000000     0.601000000
C     4.160000000    -1.071000000     1.961000000
O     4.559000000    -2.185000000     1.244000000
C     3.472000000    -2.701000000     0.397000000
H     2.626000000    -2.005000000     0.301000000
C     3.837000000    -2.903000000    -1.065000000
C     3.434000000    -4.090000000    -1.734000000
H     2.866000000    -4.801000000    -1.140000000
C     4.662000000    -1.993000000    -1.713000000
H     4.995000000    -1.144000000    -1.121000000
C     5.005000000    -2.274000000    -3.031000000
O     5.830000000    -1.395000000    -3.767000000
C     4.569000000    -3.427000000    -3.709000000
H     4.904000000    -3.642000000    -4.720000000
C     3.834000000    -4.371000000    -3.033000000
O     3.209000000    -5.446000000    -3.651000000
C     1.870000000    -5.717000000    -3.689000000
C     0.866000000    -4.781000000    -3.686000000
H     1.096000000    -3.720000000    -3.729000000
C     1.471000000    -7.055000000    -3.542000000
H     2.256000000    -7.807000000    -3.540000000
C     0.126000000    -7.511000000    -3.596000000
H    -0.193000000    -8.545000000    -3.496000000
C    -0.826000000    -6.524000000    -3.572000000
H    -1.884000000    -6.712000000    -3.407000000
C    -0.442000000    -5.213000000    -3.615000000
O    -1.397000000    -4.189000000    -3.754000000
C    -2.272000000    -3.762000000    -2.768000000
C    -3.609000000    -3.505000000    -3.073000000
H    -4.066000000    -3.478000000    -4.059000000
C    -4.476000000    -3.003000000    -2.132000000
O    -5.769000000    -2.666000000    -2.393000000
C    -6.447000000    -1.610000000    -1.816000000
C    -6.077000000    -0.316000000    -2.031000000
H    -5.117000000    -0.116000000    -2.499000000
C    -7.622000000    -1.955000000    -1.238000000
H    -7.869000000    -3.007000000    -1.124000000
C    -8.548000000    -0.972000000    -0.930000000
H    -9.503000000    -1.189000000    -0.458000000
C    -8.248000000     0.404000000    -1.146000000
H    -8.900000000     1.198000000    -0.791000000
C    -6.976000000     0.701000000    -1.586000000
O    -6.640000000     2.047000000    -1.820000000
C    -5.534000000     2.672000000    -1.272000000
C    -4.861000000     3.697000000    -1.949000000
H    -5.192000000     3.944000000    -2.954000000
C    -3.723000000     4.297000000    -1.409000000
O    -3.248000000     5.324000000    -2.097000000
C    -2.234000000     6.112000000    -1.724000000
C    -1.013000000     5.992000000    -2.343000000
H    -0.943000000     5.476000000    -3.297000000
C    -2.350000000     7.026000000    -0.689000000
H    -3.281000000     7.055000000    -0.129000000
C    -1.186000000     7.548000000    -0.093000000
H    -1.232000000     8.087000000     0.850000000
C     0.067000000     7.369000000    -0.690000000
H     0.933000000     7.738000000    -0.146000000
C     0.123000000     6.642000000    -1.812000000
O     1.332000000     6.361000000    -2.385000000
C     2.169000000     5.303000000    -1.947000000
C     3.061000000     4.841000000    -2.866000000
H     3.225000000     5.244000000    -3.862000000
C     3.916000000     3.798000000    -2.452000000
O     4.544000000     3.239000000    -3.575000000
C     5.460000000     2.220000000    -3.467000000
C     6.810000000     2.582000000    -3.426000000
H     7.074000000     3.630000000    -3.542000000
C     7.821000000     1.617000000    -3.401000000
H     8.879000000     1.839000000    -3.293000000
C     7.465000000     0.258000000    -3.354000000
H     8.200000000    -0.542000000    -3.399000000
C     6.113000000    -0.085000000    -3.533000000
C     5.146000000     0.887000000    -3.577000000
H     4.130000000     0.598000000    -3.835000000
C     1.137000000     0.876000000    -2.523000000
H     1.979000000     1.053000000    -3.188000000
C     1.348000000     0.294000000    -1.353000000
H     2.341000000     0.024000000    -1.004000000
C     0.204000000     0.135000000    -0.482000000
C     0.278000000    -0.579000000     0.827000000
H    -0.710000000    -0.640000000     1.287000000
H     0.549000000    -1.618000000     0.628000000
H     0.984000000    -0.268000000     1.601000000
C    -1.054000000     0.664000000    -0.964000000
H    -1.901000000     0.563000000    -0.289000000
C    -1.236000000     1.219000000    -2.235000000
H    -2.184000000     1.550000000    -2.652000000
C    -0.110000000     1.276000000    -2.999000000
C    -0.200000000     1.931000000    -4.324000000
O    -1.086000000     2.733000000    -4.657000000
O     0.677000000     1.712000000    -5.117000000
O    -1.456000000    -1.314000000    -7.832000000
H    -1.817000000    -2.081000000    -7.388000000
H    -2.164000000    -0.671000000    -7.815000000
O     3.433000000     1.276000000    -6.183000000
H     4.035000000     2.019000000    -6.157000000
H     2.711000000     1.532000000    -5.609000000
O    -4.307000000     2.899000000    -5.290000000
H    -3.463000000     2.690000000    -4.889000000
H    -4.282000000     3.847000000    -5.421000000
O     2.056000000     4.664000000    -8.675000000
H     1.530000000     3.890000000    -8.873000000
H     1.933000000     4.803000000    -7.735000000
O    -2.722000000     3.427000000    -9.113000000
H    -2.060000000     3.062000000    -8.526000000
H    -2.611000000     2.942000000    -9.931000000
O     0.224000000     7.031000000    -6.169000000
H     0.092000000     6.087000000    -6.082000000
H    -0.574000000     7.348000000    -6.591000000
O    -6.139000000     1.115000000    -5.045000000
H    -5.389000000     1.708000000    -5.035000000
H    -6.307000000     0.926000000    -4.121000000
O     0.140000000    -3.674000000    -6.981000000
H     0.069000000    -4.369000000    -6.326000000
H     0.450000000    -2.913000000    -6.490000000
O    -3.822000000     5.660000000    -5.812000000
H    -4.125000000     6.082000000    -5.008000000
H    -3.682000000     6.383000000    -6.424000000
O     0.651000000    -1.026000000    -6.104000000
H    -0.151000000    -1.054000000    -6.625000000
H     0.557000000    -0.245000000    -5.559000000
O     5.183000000    -0.709000000    -7.226000000
H     6.095000000    -0.523000000    -7.001000000
H     4.678000000    -0.065000000    -6.730000000
O    -0.991000000     1.925000000    -7.341000000
H    -0.097000000     1.934000000    -7.683000000
H    -0.892000000     2.100000000    -6.406000000
O     1.677000000     1.695000000    -8.309000000
H     2.493000000     1.657000000    -8.809000000
H     1.886000000     1.273000000    -7.476000000
O    -1.323000000     4.721000000    -6.667000000
H    -1.272000000     3.970000000    -6.075000000
H    -2.142000000     5.157000000    -6.432000000
O    -3.817000000    -2.136000000    -6.130000000
H    -3.519000000    -1.240000000    -6.285000000
H    -4.750000000    -2.047000000    -5.933000000
O    -3.207000000     0.581000000    -6.856000000
H    -3.780000000     1.347000000    -6.853000000
H    -2.336000000     0.934000000    -7.038000000
O     1.642000000     3.811000000    -5.888000000
H     1.153000000     3.016000000    -5.678000000
H     1.759000000     4.250000000    -5.046000000
O    -0.334000000    -0.124000000   -10.129000000
H    -0.681000000    -0.805000000    -9.553000000
H     0.314000000     0.334000000    -9.593000000
O     2.933000000    -2.402000000    -7.174000000
H     3.566000000    -1.712000000    -7.371000000
H     2.326000000    -2.000000000    -6.553000000
