218
-1491.08398
C    -4.310000000    -3.808000000     0.192000000
H    -4.973000000    -3.672000000     1.043000000
C    -2.966000000    -3.984000000     0.318000000
C    -2.149000000    -4.267000000    -0.801000000
H    -1.085000000    -4.430000000    -0.651000000
C    -2.206000000    -3.636000000     1.605000000
O    -3.068000000    -3.398000000     2.724000000
H    -1.609000000    -2.724000000     1.458000000
O    -1.151000000    -4.579000000     1.914000000
C     0.075000000    -4.040000000     2.329000000
C     1.095000000    -4.158000000     1.400000000
H     0.910000000    -4.634000000     0.440000000
C     2.315000000    -3.605000000     1.675000000
O     3.199000000    -3.623000000     0.589000000
C     2.561000000    -2.840000000     2.864000000
C     3.981000000    -2.258000000     3.144000000
H     4.079000000    -2.113000000     4.221000000
C     4.037000000    -0.831000000     2.601000000
C     3.777000000     0.269000000     3.468000000
H     3.414000000     0.070000000     4.474000000
H     4.728000000    -2.918000000     2.697000000
C     1.489000000    -2.725000000     3.767000000
H     1.641000000    -2.206000000     4.710000000
C     0.229000000    -3.318000000     3.496000000
C    -0.874000000    -3.318000000     4.552000000
H    -0.390000000    -3.291000000     5.531000000
H    -1.553000000    -4.172000000     4.492000000
C    -1.704000000    -2.129000000     4.266000000
C    -1.321000000    -0.858000000     4.704000000
H    -0.424000000    -0.772000000     5.311000000
C    -2.833000000    -2.261000000     3.476000000
C    -3.514000000    -1.129000000     3.111000000
H    -4.263000000    -1.218000000     2.328000000
C    -3.065000000     0.111000000     3.473000000
O    -3.720000000     1.165000000     2.925000000
C    -2.918000000     2.016000000     1.951000000
C    -3.647000000     2.411000000     0.686000000
C    -3.207000000     3.577000000     0.023000000
H    -2.446000000     4.201000000     0.484000000
C    -4.689000000     1.633000000     0.080000000
H    -5.157000000     0.752000000     0.511000000
O    -2.386000000     3.201000000     2.637000000
H    -2.083000000     1.390000000     1.600000000
C    -1.972000000     0.300000000     4.291000000
C    -1.639000000     1.547000000     5.001000000
H    -1.115000000     1.325000000     5.933000000
H    -2.575000000     2.069000000     5.207000000
C    -0.712000000     2.381000000     4.203000000
C     0.672000000     2.117000000     4.355000000
H     0.963000000     1.377000000     5.096000000
C    -1.113000000     3.210000000     3.159000000
C    -0.161000000     3.788000000     2.319000000
H    -0.380000000     4.182000000     1.330000000
C     1.188000000     3.640000000     2.608000000
O     2.132000000     4.222000000     1.751000000
C     2.497000000     3.436000000     0.657000000
C     2.590000000     4.109000000    -0.672000000
C     1.926000000     5.278000000    -0.951000000
H     1.591000000     5.840000000    -0.083000000
C     3.258000000     3.419000000    -1.704000000
H     3.636000000     2.406000000    -1.587000000
O     3.864000000     2.995000000     0.970000000
H     1.839000000     2.558000000     0.588000000
C     1.622000000     2.828000000     3.696000000
C     3.135000000     2.669000000     3.839000000
H     3.345000000     2.520000000     4.900000000
H     3.546000000     3.625000000     3.509000000
C     3.640000000     1.559000000     2.946000000
C     3.970000000     1.747000000     1.623000000
C     4.243000000     0.676000000     0.780000000
H     4.435000000     0.825000000    -0.280000000
C     4.329000000    -0.625000000     1.242000000
O     4.543000000    -1.633000000     0.386000000
C     3.400000000    -2.391000000    -0.164000000
H     2.518000000    -1.744000000    -0.048000000
C     3.582000000    -2.697000000    -1.674000000
C     3.111000000    -3.794000000    -2.272000000
H     2.541000000    -4.479000000    -1.649000000
C     4.346000000    -1.801000000    -2.432000000
H     4.889000000    -1.008000000    -1.925000000
C     4.595000000    -2.045000000    -3.807000000
O     5.354000000    -1.182000000    -4.543000000
C     4.029000000    -3.186000000    -4.414000000
H     4.251000000    -3.426000000    -5.451000000
C     3.284000000    -4.056000000    -3.634000000
O     2.713000000    -5.261000000    -4.168000000
C     1.539000000    -5.706000000    -3.657000000
C     0.312000000    -5.083000000    -3.776000000
H     0.254000000    -4.183000000    -4.382000000
C     1.645000000    -6.891000000    -2.885000000
H     2.667000000    -7.253000000    -2.806000000
C     0.580000000    -7.407000000    -2.126000000
H     0.586000000    -8.282000000    -1.481000000
C    -0.648000000    -6.739000000    -2.307000000
H    -1.477000000    -7.186000000    -1.765000000
C    -0.761000000    -5.564000000    -3.029000000
O    -1.981000000    -4.917000000    -3.104000000
C    -2.733000000    -4.474000000    -2.041000000
C    -4.095000000    -4.206000000    -2.177000000
H    -4.561000000    -4.190000000    -3.159000000
C    -4.816000000    -3.857000000    -1.092000000
O    -6.144000000    -3.442000000    -1.366000000
C    -6.795000000    -2.246000000    -1.076000000
C    -6.144000000    -1.024000000    -1.249000000
H    -5.090000000    -1.051000000    -1.514000000
C    -8.174000000    -2.315000000    -0.800000000
H    -8.710000000    -3.260000000    -0.753000000
C    -8.930000000    -1.106000000    -0.751000000
H    -9.997000000    -1.182000000    -0.560000000
C    -8.269000000     0.101000000    -1.010000000
H    -8.843000000     1.008000000    -1.185000000
C    -6.904000000     0.167000000    -1.235000000
O    -6.371000000     1.427000000    -1.620000000
C    -5.299000000     2.080000000    -1.066000000
C    -4.836000000     3.186000000    -1.720000000
H    -5.465000000     3.436000000    -2.571000000
C    -3.827000000     3.958000000    -1.187000000
O    -3.554000000     5.191000000    -1.831000000
C    -2.485000000     6.038000000    -1.526000000
C    -1.282000000     5.886000000    -2.156000000
H    -1.187000000     5.061000000    -2.858000000
C    -2.727000000     7.104000000    -0.695000000
H    -3.643000000     7.176000000    -0.115000000
C    -1.662000000     7.940000000    -0.351000000
H    -1.814000000     8.705000000     0.406000000
C    -0.451000000     7.914000000    -1.047000000
H     0.375000000     8.562000000    -0.767000000
C    -0.270000000     6.828000000    -1.937000000
O     0.890000000     6.685000000    -2.613000000
C     1.816000000     5.707000000    -2.278000000
C     2.564000000     5.077000000    -3.291000000
H     2.376000000     5.505000000    -4.273000000
C     3.289000000     3.897000000    -3.008000000
O     3.819000000     3.143000000    -4.061000000
C     4.888000000     2.301000000    -4.068000000
C     6.160000000     2.737000000    -3.708000000
H     6.277000000     3.765000000    -3.374000000
C     7.208000000     1.804000000    -3.577000000
H     8.184000000     2.104000000    -3.207000000
C     6.948000000     0.455000000    -3.822000000
H     7.788000000    -0.228000000    -3.920000000
C     5.698000000     0.069000000    -4.264000000
C     4.672000000     0.983000000    -4.393000000
H     3.658000000     0.632000000    -4.567000000
C     0.323000000     1.327000000    -2.132000000
H     1.014000000     1.826000000    -2.806000000
C     0.771000000     0.793000000    -0.919000000
H     1.819000000     0.842000000    -0.634000000
C    -0.137000000     0.168000000    -0.101000000
C     0.299000000    -0.272000000     1.318000000
H    -0.362000000    -1.039000000     1.728000000
H     1.297000000    -0.690000000     1.173000000
H     0.495000000     0.604000000     1.939000000
C    -1.524000000     0.151000000    -0.445000000
H    -2.334000000    -0.121000000     0.226000000
C    -1.984000000     0.671000000    -1.628000000
H    -3.013000000     0.637000000    -1.978000000
C    -1.054000000     1.161000000    -2.539000000
C    -1.460000000     1.651000000    -3.928000000
O    -2.546000000     1.257000000    -4.370000000
O    -0.660000000     2.138000000    -4.670000000
O    -2.247000000    -2.170000000    -7.975000000
H    -2.638000000    -2.698000000    -7.278000000
H    -1.900000000    -1.399000000    -7.526000000
O     1.518000000     0.703000000    -5.683000000
H     0.911000000     1.433000000    -5.559000000
H     1.137000000    -0.013000000    -5.175000000
O    -5.299000000     1.383000000    -7.662000000
H    -4.876000000     1.729000000    -6.876000000
H    -5.649000000     2.157000000    -8.105000000
O    -4.241000000     2.924000000    -5.647000000
H    -3.616000000     2.392000000    -5.154000000
H    -3.776000000     3.744000000    -5.815000000
O    -3.204000000     2.892000000    -8.674000000
H    -3.695000000     2.077000000    -8.570000000
H    -2.287000000     2.631000000    -8.586000000
O     1.715000000     4.625000000    -7.368000000
H     2.444000000     4.025000000    -7.208000000
H     1.266000000     4.686000000    -6.525000000
O    -3.106000000     5.798000000    -5.164000000
H    -3.671000000     6.375000000    -4.651000000
H    -3.556000000     5.708000000    -6.004000000
O    -2.859000000    -3.672000000    -5.616000000
H    -3.069000000    -2.886000000    -5.111000000
H    -3.705000000    -4.093000000    -5.767000000
O    -0.103000000    -1.728000000    -5.043000000
H    -0.602000000    -1.613000000    -5.852000000
H    -0.755000000    -1.649000000    -4.346000000
O    -1.516000000     0.217000000    -6.916000000
H    -0.930000000     0.903000000    -7.235000000
H    -1.838000000     0.546000000    -6.077000000
O    -0.479000000     2.214000000    -8.529000000
H    -0.029000000     2.273000000    -9.372000000
H    -0.156000000     2.965000000    -8.031000000
O    -6.024000000    -0.983000000    -6.035000000
H    -6.078000000    -0.278000000    -5.390000000
H    -6.109000000    -0.542000000    -6.880000000
O    -0.519000000     4.411000000    -5.884000000
H    -0.544000000     3.534000000    -5.502000000
H    -1.334000000     4.822000000    -5.595000000
O    -3.594000000    -1.393000000    -4.651000000
H    -4.195000000    -1.123000000    -5.345000000
H    -3.225000000    -0.573000000    -4.323000000
O     0.851000000    -0.646000000    -9.094000000
H     0.437000000     0.210000000    -8.985000000
H     1.292000000    -0.807000000    -8.260000000
O    -3.932000000     5.386000000    -7.909000000
H    -4.867000000     5.455000000    -8.102000000
H    -3.694000000     4.503000000    -8.193000000
O    -6.183000000     1.212000000    -4.478000000
H    -5.512000000     1.802000000    -4.823000000
H    -6.292000000     1.481000000    -3.566000000
O     3.250000000     2.126000000    -7.190000000
H     4.043000000     2.300000000    -6.683000000
H     2.744000000     1.524000000    -6.643000000
O     1.554000000    -2.954000000    -7.270000000
H     1.377000000    -2.436000000    -6.485000000
H     2.429000000    -2.680000000    -7.545000000
