218
-1464.33312
C    -4.685000000    -2.639000000    -0.779000000
H    -4.921000000    -2.066000000     0.114000000
C    -3.505000000    -3.351000000    -0.669000000
C    -3.012000000    -4.029000000    -1.792000000
H    -2.019000000    -4.461000000    -1.700000000
C    -2.727000000    -3.282000000     0.682000000
O    -3.519000000    -2.810000000     1.805000000
H    -1.862000000    -2.616000000     0.551000000
O    -2.138000000    -4.569000000     1.063000000
C    -0.874000000    -4.581000000     1.594000000
C     0.180000000    -4.699000000     0.676000000
H    -0.005000000    -4.955000000    -0.364000000
C     1.496000000    -4.362000000     0.988000000
O     2.392000000    -4.347000000    -0.094000000
C     1.785000000    -4.021000000     2.311000000
C     3.248000000    -3.598000000     2.791000000
H     3.299000000    -3.698000000     3.877000000
C     3.668000000    -2.164000000     2.403000000
C     3.560000000    -1.178000000     3.406000000
H     3.259000000    -1.414000000     4.424000000
H     3.970000000    -4.303000000     2.373000000
C     0.783000000    -3.849000000     3.222000000
H     0.971000000    -3.582000000     4.259000000
C    -0.553000000    -4.063000000     2.854000000
C    -1.600000000    -3.786000000     3.910000000
H    -1.190000000    -4.014000000     4.896000000
H    -2.516000000    -4.379000000     3.870000000
C    -2.056000000    -2.376000000     3.723000000
C    -1.580000000    -1.394000000     4.578000000
H    -0.828000000    -1.694000000     5.303000000
C    -2.982000000    -1.977000000     2.759000000
C    -3.370000000    -0.637000000     2.694000000
H    -3.981000000    -0.329000000     1.849000000
C    -2.961000000     0.341000000     3.570000000
O    -3.387000000     1.633000000     3.368000000
C    -2.480000000     2.535000000     2.768000000
C    -3.151000000     3.304000000     1.687000000
C    -3.021000000     4.686000000     1.524000000
H    -2.674000000     5.270000000     2.373000000
C    -3.784000000     2.555000000     0.688000000
H    -3.794000000     1.468000000     0.699000000
O    -1.747000000     3.242000000     3.750000000
H    -1.712000000     1.983000000     2.206000000
C    -2.055000000    -0.094000000     4.572000000
C    -1.318000000     0.963000000     5.504000000
H    -0.933000000     0.487000000     6.408000000
H    -2.043000000     1.739000000     5.757000000
C    -0.215000000     1.641000000     4.723000000
C     1.030000000     1.167000000     4.814000000
H     1.240000000     0.365000000     5.517000000
C    -0.452000000     2.789000000     3.959000000
C     0.578000000     3.396000000     3.234000000
H     0.369000000     4.249000000     2.593000000
C     1.872000000     2.849000000     3.255000000
O     2.733000000     3.275000000     2.280000000
C     3.057000000     2.433000000     1.090000000
C     3.072000000     3.283000000    -0.187000000
C     2.132000000     4.356000000    -0.418000000
H     1.273000000     4.614000000     0.195000000
C     3.931000000     2.925000000    -1.219000000
H     4.457000000     1.977000000    -1.288000000
O     4.280000000     1.738000000     1.372000000
H     2.165000000     1.837000000     0.847000000
C     2.132000000     1.733000000     4.077000000
C     3.528000000     1.171000000     4.093000000
H     3.748000000     0.634000000     5.018000000
H     4.231000000     2.004000000     4.011000000
C     3.793000000     0.102000000     3.072000000
C     4.131000000     0.431000000     1.754000000
C     4.200000000    -0.528000000     0.817000000
H     4.580000000    -0.250000000    -0.163000000
C     4.085000000    -1.855000000     1.161000000
O     4.090000000    -2.795000000     0.167000000
C     2.869000000    -3.007000000    -0.484000000
H     2.208000000    -2.215000000    -0.102000000
C     3.016000000    -2.867000000    -1.969000000
C     1.955000000    -3.220000000    -2.808000000
H     1.001000000    -3.469000000    -2.351000000
C     4.209000000    -2.493000000    -2.573000000
H     5.073000000    -2.215000000    -1.975000000
C     4.297000000    -2.302000000    -3.980000000
O     5.420000000    -1.721000000    -4.549000000
C     3.227000000    -2.675000000    -4.825000000
H     3.358000000    -2.551000000    -5.897000000
C     2.055000000    -3.200000000    -4.245000000
O     0.994000000    -3.377000000    -5.082000000
C     0.074000000    -4.439000000    -4.895000000
C    -1.275000000    -4.159000000    -4.715000000
H    -1.652000000    -3.146000000    -4.828000000
C     0.470000000    -5.749000000    -4.797000000
H     1.523000000    -5.979000000    -4.938000000
C    -0.373000000    -6.815000000    -4.559000000
H    -0.100000000    -7.861000000    -4.669000000
C    -1.724000000    -6.491000000    -4.295000000
H    -2.469000000    -7.236000000    -4.027000000
C    -2.189000000    -5.156000000    -4.443000000
O    -3.496000000    -4.838000000    -4.151000000
C    -3.811000000    -4.104000000    -2.969000000
C    -5.020000000    -3.476000000    -2.990000000
H    -5.613000000    -3.596000000    -3.894000000
C    -5.431000000    -2.649000000    -1.926000000
O    -6.552000000    -1.963000000    -1.992000000
C    -6.694000000    -0.681000000    -1.511000000
C    -5.704000000     0.248000000    -1.674000000
H    -4.738000000    -0.126000000    -2.004000000
C    -7.940000000    -0.350000000    -0.933000000
H    -8.754000000    -1.026000000    -0.683000000
C    -8.137000000     0.976000000    -0.499000000
H    -9.063000000     1.204000000     0.023000000
C    -7.094000000     1.938000000    -0.683000000
H    -7.304000000     2.979000000    -0.452000000
C    -5.857000000     1.602000000    -1.304000000
O    -4.861000000     2.498000000    -1.435000000
C    -4.193000000     3.201000000    -0.478000000
C    -4.075000000     4.576000000    -0.629000000
H    -4.425000000     5.127000000    -1.498000000
C    -3.448000000     5.316000000     0.352000000
O    -3.113000000     6.615000000     0.101000000
C    -1.734000000     6.972000000     0.066000000
C    -0.870000000     6.273000000    -0.804000000
H    -1.216000000     5.405000000    -1.359000000
C    -1.174000000     7.974000000     0.853000000
H    -1.803000000     8.549000000     1.528000000
C     0.191000000     8.319000000     0.721000000
H     0.591000000     9.036000000     1.433000000
C     1.016000000     7.661000000    -0.193000000
H     2.091000000     7.810000000    -0.257000000
C     0.492000000     6.624000000    -0.992000000
O     1.237000000     5.994000000    -1.925000000
C     2.229000000     5.141000000    -1.613000000
C     2.997000000     4.689000000    -2.635000000
H     3.068000000     5.283000000    -3.543000000
C     3.806000000     3.554000000    -2.458000000
O     4.353000000     2.910000000    -3.573000000
C     5.267000000     1.861000000    -3.575000000
C     6.608000000     2.047000000    -3.085000000
H     6.917000000     3.033000000    -2.749000000
C     7.447000000     0.969000000    -2.924000000
H     8.397000000     1.126000000    -2.421000000
C     7.143000000    -0.277000000    -3.476000000
H     7.941000000    -1.014000000    -3.534000000
C     5.890000000    -0.468000000    -4.029000000
C     4.919000000     0.542000000    -3.997000000
H     3.939000000     0.369000000    -4.434000000
C     0.973000000    -0.049000000    -2.600000000
H     1.864000000     0.096000000    -3.206000000
C     1.113000000    -0.004000000    -1.206000000
H     2.137000000     0.101000000    -0.856000000
C     0.011000000    -0.230000000    -0.374000000
C     0.042000000    -0.368000000     1.195000000
H     0.950000000    -0.838000000     1.577000000
H     0.170000000     0.635000000     1.607000000
H    -0.854000000    -0.768000000     1.674000000
C    -1.262000000    -0.288000000    -0.954000000
H    -2.130000000    -0.281000000    -0.300000000
C    -1.417000000    -0.270000000    -2.327000000
H    -2.416000000    -0.359000000    -2.744000000
C    -0.296000000    -0.211000000    -3.192000000
C    -0.520000000    -0.246000000    -4.701000000
O    -1.658000000    -0.424000000    -5.160000000
O     0.381000000    -0.033000000    -5.445000000
O    -0.175000000    -1.822000000    -7.331000000
H    -1.099000000    -2.022000000    -7.182000000
H     0.103000000    -1.367000000    -6.536000000
O     5.580000000     0.003000000    -7.327000000
H     4.783000000    -0.087000000    -6.805000000
H     5.619000000     0.934000000    -7.546000000
O    -0.486000000     3.229000000    -3.334000000
H    -0.771000000     2.772000000    -2.542000000
H    -0.459000000     4.151000000    -3.081000000
O    -0.987000000     5.970000000    -4.684000000
H    -0.438000000     5.816000000    -5.453000000
H    -1.702000000     5.340000000    -4.770000000
O     0.654000000     4.337000000    -7.949000000
H     1.345000000     4.056000000    -8.548000000
H     0.783000000     3.801000000    -7.166000000
O    -3.894000000     1.162000000    -4.617000000
H    -4.581000000     0.572000000    -4.927000000
H    -3.126000000     0.601000000    -4.509000000
O    -1.154000000     2.040000000   -10.003000000
H    -1.085000000     1.519000000    -9.203000000
H    -1.231000000     2.943000000    -9.695000000
O    -2.837000000    -1.976000000    -6.811000000
H    -2.625000000    -1.410000000    -6.069000000
H    -3.706000000    -2.323000000    -6.607000000
O    -5.007000000     3.879000000    -4.083000000
H    -5.924000000     3.851000000    -3.809000000
H    -4.621000000     3.087000000    -3.709000000
O     3.696000000     3.756000000    -6.142000000
H     2.786000000     3.560000000    -5.921000000
H     4.121000000     3.903000000    -5.296000000
O     1.024000000     2.620000000    -5.833000000
H     0.808000000     2.899000000    -4.943000000
H     0.714000000     1.716000000    -5.883000000
O     1.767000000    -3.524000000    -8.619000000
H     2.057000000    -4.152000000    -7.958000000
H     0.986000000    -3.121000000    -8.240000000
O    -5.841000000    -0.744000000    -5.174000000
H    -6.349000000    -1.215000000    -5.834000000
H    -6.441000000    -0.078000000    -4.840000000
O    -2.003000000     3.474000000    -5.860000000
H    -1.878000000     3.193000000    -4.954000000
H    -1.595000000     2.784000000    -6.383000000
O     2.415000000    -0.399000000    -6.941000000
H     2.080000000    -0.008000000    -7.749000000
H     1.681000000    -0.348000000    -6.329000000
O    -1.529000000     1.022000000    -7.492000000
H    -1.237000000     0.357000000    -6.868000000
H    -2.385000000     0.713000000    -7.787000000
O    -2.341000000     5.003000000    -8.246000000
H    -2.124000000     4.331000000    -7.600000000
H    -3.263000000     5.202000000    -8.085000000
O     0.950000000    -0.410000000    -9.609000000
H     0.822000000    -1.182000000    -9.058000000
H     0.110000000    -0.288000000   -10.050000000
O    -4.680000000     3.166000000    -6.569000000
H    -4.133000000     2.679000000    -5.954000000
H    -4.968000000     3.935000000    -6.076000000
