218
-1459.31545
C    -4.630000000    -1.914000000    -0.848000000
H    -4.650000000    -1.144000000    -0.081000000
C    -3.671000000    -3.003000000    -0.719000000
C    -3.562000000    -3.892000000    -1.778000000
H    -2.908000000    -4.754000000    -1.673000000
C    -2.869000000    -3.130000000     0.543000000
O    -3.679000000    -2.760000000     1.684000000
H    -2.102000000    -2.342000000     0.512000000
O    -2.252000000    -4.381000000     0.717000000
C    -1.025000000    -4.501000000     1.226000000
C    -0.022000000    -4.814000000     0.264000000
H    -0.296000000    -5.008000000    -0.770000000
C     1.269000000    -4.667000000     0.681000000
O     2.296000000    -4.672000000    -0.327000000
C     1.597000000    -4.186000000     1.920000000
C     3.063000000    -4.000000000     2.287000000
H     3.305000000    -4.477000000     3.239000000
C     3.512000000    -2.595000000     2.085000000
C     3.551000000    -1.705000000     3.109000000
H     3.220000000    -1.995000000     4.103000000
H     3.629000000    -4.601000000     1.572000000
C     0.619000000    -3.951000000     2.902000000
H     0.964000000    -3.606000000     3.873000000
C    -0.714000000    -4.111000000     2.554000000
C    -1.807000000    -3.921000000     3.548000000
H    -1.377000000    -4.068000000     4.541000000
H    -2.611000000    -4.652000000     3.435000000
C    -2.200000000    -2.425000000     3.567000000
C    -1.505000000    -1.496000000     4.326000000
H    -0.856000000    -1.868000000     5.115000000
C    -3.097000000    -1.960000000     2.656000000
C    -3.372000000    -0.596000000     2.566000000
H    -3.940000000    -0.150000000     1.754000000
C    -2.723000000     0.275000000     3.405000000
O    -3.046000000     1.615000000     3.181000000
C    -2.132000000     2.496000000     2.488000000
C    -2.858000000     3.586000000     1.674000000
C    -2.173000000     4.768000000     1.433000000
H    -1.179000000     5.019000000     1.794000000
C    -4.021000000     3.392000000     0.979000000
H    -4.569000000     2.482000000     1.208000000
O    -1.149000000     3.116000000     3.476000000
H    -1.578000000     1.990000000     1.684000000
C    -1.760000000    -0.182000000     4.320000000
C    -0.967000000     0.768000000     5.296000000
H    -0.691000000     0.262000000     6.223000000
H    -1.591000000     1.587000000     5.661000000
C     0.244000000     1.451000000     4.672000000
C     1.481000000     0.888000000     4.849000000
H     1.604000000     0.003000000     5.467000000
C     0.090000000     2.595000000     3.819000000
C     1.225000000     3.143000000     3.171000000
H     1.141000000     3.863000000     2.361000000
C     2.453000000     2.503000000     3.325000000
O     3.546000000     2.928000000     2.528000000
C     3.773000000     2.320000000     1.268000000
C     3.898000000     3.281000000     0.150000000
C     3.178000000     4.459000000     0.144000000
H     2.558000000     4.751000000     0.987000000
C     4.518000000     2.943000000    -1.065000000
H     5.007000000     1.972000000    -1.065000000
O     4.791000000     1.380000000     1.362000000
H     2.895000000     1.685000000     1.077000000
C     2.561000000     1.347000000     4.099000000
C     3.872000000     0.627000000     4.049000000
H     4.084000000     0.030000000     4.938000000
H     4.660000000     1.383000000     4.058000000
C     4.002000000    -0.384000000     2.947000000
C     4.372000000     0.039000000     1.626000000
C     4.476000000    -0.880000000     0.612000000
H     4.794000000    -0.419000000    -0.320000000
C     4.028000000    -2.180000000     0.811000000
O     3.819000000    -2.870000000    -0.373000000
C     2.545000000    -3.371000000    -0.864000000
H     1.741000000    -2.737000000    -0.461000000
C     2.361000000    -3.236000000    -2.386000000
C     1.538000000    -4.114000000    -3.169000000
H     1.078000000    -4.994000000    -2.726000000
C     3.021000000    -2.185000000    -3.082000000
H     3.611000000    -1.517000000    -2.460000000
C     2.744000000    -1.852000000    -4.417000000
O     3.339000000    -0.786000000    -5.069000000
C     1.840000000    -2.585000000    -5.130000000
H     1.708000000    -2.375000000    -6.188000000
C     1.269000000    -3.755000000    -4.502000000
O     0.525000000    -4.537000000    -5.333000000
C    -0.613000000    -5.243000000    -5.059000000
C    -1.807000000    -4.627000000    -4.605000000
H    -1.654000000    -3.572000000    -4.395000000
C    -0.705000000    -6.680000000    -5.356000000
H     0.203000000    -7.200000000    -5.649000000
C    -1.957000000    -7.311000000    -5.117000000
H    -2.027000000    -8.374000000    -5.331000000
C    -3.121000000    -6.606000000    -4.681000000
H    -4.025000000    -7.152000000    -4.426000000
C    -3.042000000    -5.243000000    -4.408000000
O    -4.141000000    -4.568000000    -3.986000000
C    -4.274000000    -3.706000000    -2.959000000
C    -5.108000000    -2.553000000    -3.103000000
H    -5.660000000    -2.540000000    -4.039000000
C    -5.304000000    -1.686000000    -2.049000000
O    -6.047000000    -0.550000000    -2.191000000
C    -6.373000000     0.444000000    -1.333000000
C    -5.836000000     1.691000000    -1.505000000
H    -5.126000000     1.867000000    -2.309000000
C    -7.147000000     0.124000000    -0.175000000
H    -7.508000000    -0.886000000    -0.002000000
C    -7.412000000     1.136000000     0.763000000
H    -8.020000000     0.846000000     1.617000000
C    -7.039000000     2.448000000     0.520000000
H    -7.150000000     3.199000000     1.298000000
C    -6.262000000     2.740000000    -0.641000000
O    -5.635000000     4.032000000    -0.676000000
C    -4.521000000     4.288000000     0.046000000
C    -3.829000000     5.497000000    -0.092000000
H    -4.201000000     6.204000000    -0.830000000
C    -2.645000000     5.734000000     0.609000000
O    -2.005000000     6.959000000     0.247000000
C    -0.647000000     7.152000000     0.464000000
C     0.296000000     6.652000000    -0.428000000
H    -0.011000000     5.914000000    -1.164000000
C    -0.352000000     7.788000000     1.698000000
H    -1.049000000     8.206000000     2.419000000
C     1.045000000     7.914000000     1.999000000
H     1.337000000     8.504000000     2.864000000
C     2.009000000     7.443000000     1.131000000
H     3.059000000     7.623000000     1.345000000
C     1.626000000     6.868000000    -0.124000000
O     2.579000000     6.526000000    -0.999000000
C     3.218000000     5.309000000    -0.958000000
C     3.885000000     5.002000000    -2.091000000
H     3.926000000     5.660000000    -2.955000000
C     4.558000000     3.794000000    -2.193000000
O     4.919000000     3.333000000    -3.471000000
C     5.152000000     1.961000000    -3.704000000
C     6.344000000     1.360000000    -3.304000000
H     7.088000000     1.927000000    -2.749000000
C     6.576000000    -0.024000000    -3.624000000
H     7.528000000    -0.491000000    -3.383000000
C     5.589000000    -0.758000000    -4.245000000
H     5.768000000    -1.808000000    -4.459000000
C     4.398000000    -0.081000000    -4.527000000
C     4.173000000     1.241000000    -4.301000000
H     3.206000000     1.646000000    -4.588000000
C     0.924000000     1.134000000    -2.543000000
H     1.779000000     1.295000000    -3.194000000
C     1.065000000     0.745000000    -1.249000000
H     2.011000000     0.567000000    -0.743000000
C    -0.092000000     0.478000000    -0.455000000
C     0.057000000     0.151000000     1.020000000
H    -0.892000000    -0.165000000     1.459000000
H     0.799000000    -0.632000000     1.192000000
H     0.207000000     1.076000000     1.579000000
C    -1.393000000     0.723000000    -0.915000000
H    -2.261000000     0.555000000    -0.282000000
C    -1.525000000     1.250000000    -2.239000000
H    -2.519000000     1.562000000    -2.549000000
C    -0.372000000     1.443000000    -3.051000000
C    -0.458000000     1.798000000    -4.534000000
O    -1.499000000     2.156000000    -4.999000000
O     0.506000000     1.645000000    -5.243000000
O    -2.700000000    -2.648000000    -7.447000000
H    -2.160000000    -1.881000000    -7.255000000
H    -2.082000000    -3.299000000    -7.780000000
O     1.017000000     8.141000000    -3.503000000
H     1.969000000     8.187000000    -3.590000000
H     0.711000000     7.863000000    -4.367000000
O    -2.025000000     5.229000000    -3.304000000
H    -1.133000000     5.240000000    -3.653000000
H    -2.136000000     4.345000000    -2.956000000
O     1.262000000     3.866000000    -6.232000000
H     1.153000000     3.096000000    -5.674000000
H     0.420000000     3.960000000    -6.678000000
O    -4.745000000     5.071000000    -5.954000000
H    -5.600000000     4.641000000    -5.970000000
H    -4.149000000     4.404000000    -5.611000000
O    -3.910000000     2.307000000    -5.839000000
H    -4.224000000     1.410000000    -5.726000000
H    -3.025000000     2.299000000    -5.475000000
O    -3.616000000     2.013000000    -8.881000000
H    -3.629000000     1.056000000    -8.873000000
H    -4.019000000     2.265000000    -8.051000000
O    -1.649000000    -0.258000000    -6.659000000
H    -0.700000000    -0.151000000    -6.721000000
H    -1.928000000     0.418000000    -6.042000000
O    -2.166000000     8.016000000    -2.932000000
H    -1.481000000     8.102000000    -2.269000000
H    -2.357000000     7.079000000    -2.958000000
O     0.607000000     2.809000000    -9.471000000
H    -0.103000000     2.969000000    -8.848000000
H     0.182000000     2.828000000   -10.328000000
O     3.588000000     4.177000000    -7.681000000
H     4.336000000     4.387000000    -7.121000000
H     2.822000000     4.371000000    -7.141000000
O    -2.264000000     6.213000000    -6.745000000
H    -1.844000000     5.367000000    -6.904000000
H    -3.191000000     6.058000000    -6.931000000
O    -1.346000000     3.621000000    -7.311000000
H    -1.287000000     3.023000000    -6.565000000
H    -2.203000000     3.437000000    -7.697000000
O     1.226000000     0.587000000    -7.658000000
H     1.029000000     1.323000000    -8.237000000
H     1.261000000     0.973000000    -6.783000000
O     1.631000000    -1.252000000   -10.192000000
H     1.297000000    -0.723000000    -9.468000000
H     1.803000000    -0.620000000   -10.890000000
O     0.037000000     7.261000000    -5.837000000
H     0.547000000     7.212000000    -6.645000000
H    -0.825000000     6.922000000    -6.078000000
O    -4.550000000    -0.575000000    -6.019000000
H    -3.738000000    -0.944000000    -6.366000000
H    -5.227000000    -1.199000000    -6.281000000
O     0.616000000     4.945000000    -3.805000000
H     0.955000000     4.653000000    -4.652000000
H     1.035000000     5.793000000    -3.658000000
O     4.103000000    -0.072000000    -7.658000000
H     4.261000000    -0.269000000    -6.735000000
H     3.156000000     0.055000000    -7.717000000
