218
-1473.87906
C    -4.955000000    -1.876000000    -0.220000000
H    -5.283000000    -1.342000000     0.669000000
C    -3.878000000    -2.826000000    -0.197000000
C    -3.589000000    -3.560000000    -1.308000000
H    -2.685000000    -4.164000000    -1.312000000
C    -2.993000000    -3.056000000     0.989000000
O    -3.729000000    -2.790000000     2.182000000
H    -2.191000000    -2.305000000     1.040000000
O    -2.336000000    -4.322000000     1.121000000
C    -1.040000000    -4.367000000     1.425000000
C    -0.112000000    -4.536000000     0.402000000
H    -0.514000000    -4.649000000    -0.602000000
C     1.256000000    -4.422000000     0.647000000
O     2.137000000    -4.546000000    -0.430000000
C     1.716000000    -4.128000000     1.956000000
C     3.202000000    -4.095000000     2.228000000
H     3.362000000    -4.259000000     3.295000000
C     3.685000000    -2.695000000     1.881000000
C     3.639000000    -1.721000000     2.918000000
H     3.360000000    -2.030000000     3.922000000
H     3.691000000    -4.877000000     1.642000000
C     0.795000000    -3.930000000     2.974000000
H     1.246000000    -3.669000000     3.928000000
C    -0.568000000    -4.041000000     2.704000000
C    -1.581000000    -3.824000000     3.869000000
H    -1.141000000    -3.937000000     4.862000000
H    -2.383000000    -4.564000000     3.881000000
C    -2.068000000    -2.362000000     3.912000000
C    -1.404000000    -1.430000000     4.712000000
H    -0.734000000    -1.819000000     5.475000000
C    -3.027000000    -1.876000000     3.051000000
C    -3.335000000    -0.537000000     2.956000000
H    -4.190000000    -0.311000000     2.324000000
C    -2.627000000     0.350000000     3.725000000
O    -2.890000000     1.663000000     3.551000000
C    -2.042000000     2.467000000     2.706000000
C    -2.810000000     3.273000000     1.696000000
C    -2.037000000     4.237000000     1.000000000
H    -0.981000000     4.282000000     1.254000000
C    -4.127000000     3.131000000     1.368000000
H    -4.698000000     2.465000000     2.009000000
O    -1.178000000     3.233000000     3.530000000
H    -1.356000000     1.809000000     2.153000000
C    -1.663000000    -0.096000000     4.607000000
C    -0.812000000     0.875000000     5.360000000
H    -0.333000000     0.393000000     6.215000000
H    -1.483000000     1.539000000     5.908000000
C     0.283000000     1.489000000     4.518000000
C     1.502000000     0.833000000     4.519000000
H     1.649000000    -0.053000000     5.132000000
C     0.108000000     2.656000000     3.741000000
C     1.175000000     3.057000000     2.861000000
H     1.064000000     3.894000000     2.176000000
C     2.379000000     2.356000000     2.828000000
O     3.402000000     2.902000000     2.073000000
C     3.620000000     2.187000000     0.842000000
C     3.775000000     3.239000000    -0.298000000
C     3.169000000     4.521000000    -0.314000000
H     2.679000000     4.877000000     0.588000000
C     4.278000000     2.736000000    -1.507000000
H     4.690000000     1.730000000    -1.527000000
O     4.725000000     1.293000000     1.046000000
H     2.715000000     1.602000000     0.622000000
C     2.602000000     1.262000000     3.695000000
C     3.920000000     0.571000000     3.784000000
H     3.853000000     0.022000000     4.726000000
H     4.798000000     1.215000000     3.703000000
C     4.079000000    -0.437000000     2.641000000
C     4.416000000    -0.067000000     1.336000000
C     4.402000000    -1.001000000     0.319000000
H     4.862000000    -0.739000000    -0.631000000
C     4.103000000    -2.315000000     0.603000000
O     4.041000000    -3.191000000    -0.430000000
C     2.736000000    -3.324000000    -0.939000000
H     2.160000000    -2.496000000    -0.499000000
C     2.662000000    -3.178000000    -2.475000000
C     1.555000000    -3.594000000    -3.150000000
H     0.748000000    -4.107000000    -2.634000000
C     3.667000000    -2.468000000    -3.207000000
H     4.546000000    -2.026000000    -2.745000000
C     3.587000000    -2.272000000    -4.543000000
O     4.477000000    -1.535000000    -5.297000000
C     2.507000000    -2.778000000    -5.207000000
H     2.529000000    -2.824000000    -6.293000000
C     1.509000000    -3.481000000    -4.551000000
O     0.469000000    -4.043000000    -5.241000000
C    -0.623000000    -4.686000000    -4.730000000
C    -1.804000000    -3.938000000    -4.430000000
H    -1.877000000    -2.887000000    -4.696000000
C    -0.520000000    -6.005000000    -4.353000000
H     0.404000000    -6.533000000    -4.576000000
C    -1.652000000    -6.611000000    -3.876000000
H    -1.647000000    -7.687000000    -3.723000000
C    -2.805000000    -5.925000000    -3.516000000
H    -3.624000000    -6.541000000    -3.154000000
C    -2.891000000    -4.565000000    -3.819000000
O    -4.011000000    -3.802000000    -3.730000000
C    -4.386000000    -3.382000000    -2.499000000
C    -5.421000000    -2.479000000    -2.501000000
H    -6.050000000    -2.290000000    -3.367000000
C    -5.752000000    -1.737000000    -1.376000000
O    -6.732000000    -0.844000000    -1.420000000
C    -6.903000000     0.144000000    -0.521000000
C    -6.417000000     1.403000000    -0.745000000
H    -5.724000000     1.581000000    -1.564000000
C    -7.784000000    -0.095000000     0.508000000
H    -8.226000000    -1.075000000     0.665000000
C    -8.218000000     0.983000000     1.266000000
H    -8.934000000     0.869000000     2.076000000
C    -7.638000000     2.200000000     1.199000000
H    -7.799000000     2.963000000     1.956000000
C    -6.683000000     2.391000000     0.202000000
O    -6.047000000     3.652000000     0.173000000
C    -4.702000000     3.881000000     0.386000000
C    -3.982000000     4.832000000    -0.304000000
H    -4.438000000     5.437000000    -1.083000000
C    -2.701000000     5.040000000     0.032000000
O    -1.977000000     5.918000000    -0.853000000
C    -0.858000000     6.565000000    -0.524000000
C     0.345000000     6.144000000    -1.068000000
H     0.322000000     5.303000000    -1.757000000
C    -0.964000000     7.588000000     0.432000000
H    -1.924000000     7.989000000     0.747000000
C     0.190000000     8.394000000     0.652000000
H     0.187000000     9.317000000     1.226000000
C     1.433000000     7.961000000     0.029000000
H     2.346000000     8.539000000     0.147000000
C     1.470000000     6.933000000    -0.854000000
O     2.657000000     6.552000000    -1.453000000
C     3.236000000     5.273000000    -1.470000000
C     3.811000000     4.767000000    -2.610000000
H     3.744000000     5.358000000    -3.520000000
C     4.191000000     3.442000000    -2.684000000
O     4.636000000     2.971000000    -3.907000000
C     5.348000000     1.796000000    -4.143000000
C     6.701000000     1.637000000    -3.926000000
H     7.299000000     2.504000000    -3.655000000
C     7.372000000     0.424000000    -4.176000000
H     8.440000000     0.330000000    -3.995000000
C     6.578000000    -0.657000000    -4.623000000
H     6.940000000    -1.660000000    -4.836000000
C     5.196000000    -0.496000000    -4.836000000
C     4.600000000     0.703000000    -4.505000000
H     3.523000000     0.781000000    -4.629000000
C     1.051000000    -0.248000000    -2.906000000
H     2.001000000    -0.105000000    -3.414000000
C     1.092000000    -0.354000000    -1.517000000
H     2.038000000    -0.252000000    -0.992000000
C    -0.050000000    -0.595000000    -0.775000000
C     0.027000000    -0.353000000     0.747000000
H     0.335000000     0.668000000     0.980000000
H    -0.908000000    -0.665000000     1.217000000
H     0.815000000    -0.979000000     1.170000000
C    -1.180000000    -0.798000000    -1.438000000
H    -2.117000000    -0.897000000    -0.896000000
C    -1.287000000    -0.706000000    -2.818000000
H    -2.280000000    -0.753000000    -3.258000000
C    -0.175000000    -0.325000000    -3.539000000
C    -0.275000000     0.057000000    -5.004000000
O    -1.400000000     0.111000000    -5.463000000
O     0.663000000     0.449000000    -5.631000000
O    -1.194000000    -3.711000000    -7.703000000
H    -1.356000000    -2.768000000    -7.677000000
H    -0.495000000    -3.851000000    -7.064000000
O    -0.001000000     2.704000000    -2.665000000
H    -0.026000000     1.798000000    -2.356000000
H     0.767000000     2.743000000    -3.234000000
O     0.969000000     3.081000000    -5.745000000
H     0.942000000     2.157000000    -5.496000000
H     0.128000000     3.238000000    -6.174000000
O    -3.914000000     1.396000000    -4.599000000
H    -4.594000000     0.725000000    -4.659000000
H    -3.158000000     1.012000000    -5.044000000
O    -3.674000000     1.057000000    -8.546000000
H    -4.568000000     1.337000000    -8.346000000
H    -3.623000000     1.083000000    -9.501000000
O    -2.551000000    -1.298000000    -7.435000000
H    -2.964000000    -0.611000000    -7.959000000
H    -2.156000000    -0.832000000    -6.698000000
O    -2.400000000     3.506000000    -3.986000000
H    -1.837000000     3.273000000    -3.248000000
H    -3.048000000     2.803000000    -4.026000000
O     4.673000000     2.295000000    -7.710000000
H     4.076000000     1.608000000    -7.414000000
H     4.131000000     3.084000000    -7.746000000
O     0.878000000     0.999000000    -9.457000000
H     0.061000000     1.173000000    -8.991000000
H     0.831000000     1.550000000   -10.238000000
O     2.802000000     4.275000000    -7.354000000
H     2.688000000     5.213000000    -7.199000000
H     2.153000000     3.859000000    -6.786000000
O    -5.362000000    -1.969000000    -6.841000000
H    -4.419000000    -1.882000000    -6.984000000
H    -5.457000000    -2.793000000    -6.362000000
O    -3.467000000     4.014000000    -6.463000000
H    -2.955000000     3.835000000    -5.674000000
H    -2.828000000     3.990000000    -7.175000000
O    -1.224000000     1.882000000    -7.532000000
H    -1.274000000     1.437000000    -6.686000000
H    -2.059000000     1.685000000    -7.956000000
O     2.662000000     0.496000000    -7.386000000
H     2.191000000     0.689000000    -8.197000000
H     1.974000000     0.397000000    -6.728000000
O     1.823000000    -1.472000000   -10.240000000
H     1.577000000    -0.585000000    -9.976000000
H     2.286000000    -1.355000000   -11.070000000
O    -6.166000000     0.066000000    -5.290000000
H    -7.016000000    -0.192000000    -4.932000000
H    -5.903000000    -0.673000000    -5.838000000
O     1.156000000     5.784000000    -4.806000000
H     1.117000000     4.838000000    -4.951000000
H     0.405000000     6.131000000    -5.286000000
O     4.781000000    -1.173000000    -8.285000000
H     5.026000000    -1.719000000    -7.538000000
H     4.060000000    -0.632000000    -7.961000000
O     2.009000000    -3.876000000    -8.810000000
H     1.605000000    -4.156000000    -9.632000000
H     2.147000000    -2.935000000    -8.919000000
