218
-1469.54306
C    -3.880000000    -2.776000000    -1.067000000
H    -4.125000000    -2.138000000    -0.222000000
C    -2.811000000    -3.607000000    -0.878000000
C    -2.438000000    -4.474000000    -1.957000000
H    -1.575000000    -5.112000000    -1.787000000
C    -2.025000000    -3.615000000     0.447000000
O    -2.960000000    -3.368000000     1.558000000
H    -1.294000000    -2.822000000     0.231000000
O    -1.300000000    -4.789000000     0.622000000
C    -0.012000000    -4.636000000     1.019000000
C     0.952000000    -4.514000000     0.034000000
H     0.772000000    -4.793000000    -1.002000000
C     2.274000000    -4.197000000     0.371000000
O     3.135000000    -3.915000000    -0.691000000
C     2.632000000    -3.936000000     1.723000000
C     4.048000000    -3.475000000     2.116000000
H     4.179000000    -3.695000000     3.178000000
C     4.213000000    -1.936000000     1.962000000
C     4.026000000    -1.132000000     3.111000000
H     3.852000000    -1.543000000     4.102000000
H     4.864000000    -3.953000000     1.570000000
C     1.627000000    -4.066000000     2.708000000
H     1.891000000    -3.823000000     3.735000000
C     0.282000000    -4.361000000     2.352000000
C    -0.833000000    -4.381000000     3.370000000
H    -0.558000000    -4.699000000     4.378000000
H    -1.614000000    -5.059000000     3.019000000
C    -1.433000000    -3.019000000     3.549000000
C    -0.991000000    -2.106000000     4.504000000
H    -0.237000000    -2.411000000     5.225000000
C    -2.435000000    -2.594000000     2.628000000
C    -3.137000000    -1.418000000     2.857000000
H    -3.888000000    -1.134000000     2.124000000
C    -2.727000000    -0.569000000     3.869000000
O    -3.337000000     0.684000000     3.856000000
C    -2.651000000     1.610000000     3.073000000
C    -3.647000000     2.302000000     2.103000000
C    -3.292000000     3.568000000     1.576000000
H    -2.358000000     4.102000000     1.734000000
C    -4.788000000     1.650000000     1.656000000
H    -5.082000000     0.644000000     1.943000000
O    -1.876000000     2.513000000     3.925000000
H    -1.919000000     1.115000000     2.417000000
C    -1.623000000    -0.822000000     4.622000000
C    -1.070000000     0.178000000     5.602000000
H    -0.475000000    -0.323000000     6.368000000
H    -1.897000000     0.760000000     6.014000000
C    -0.113000000     1.128000000     4.899000000
C     1.237000000     0.835000000     4.946000000
H     1.507000000    -0.056000000     5.507000000
C    -0.532000000     2.258000000     4.189000000
C     0.400000000     3.003000000     3.491000000
H     0.037000000     3.778000000     2.822000000
C     1.728000000     2.720000000     3.537000000
O     2.605000000     3.383000000     2.701000000
C     2.706000000     2.690000000     1.481000000
C     2.486000000     3.557000000     0.301000000
C     1.778000000     4.759000000     0.525000000
H     1.428000000     5.004000000     1.524000000
C     3.043000000     3.293000000    -0.960000000
H     3.753000000     2.471000000    -1.004000000
O     4.063000000     2.137000000     1.389000000
H     2.025000000     1.834000000     1.373000000
C     2.193000000     1.574000000     4.249000000
C     3.658000000     1.106000000     4.155000000
H     3.880000000     0.607000000     5.101000000
H     4.285000000     1.998000000     4.088000000
C     4.004000000     0.263000000     2.911000000
C     4.265000000     0.818000000     1.679000000
C     4.566000000    -0.012000000     0.600000000
H     4.881000000     0.494000000    -0.309000000
C     4.554000000    -1.382000000     0.746000000
O     4.659000000    -2.126000000    -0.372000000
C     3.449000000    -2.532000000    -0.964000000
H     2.571000000    -1.989000000    -0.585000000
C     3.435000000    -2.167000000    -2.443000000
C     2.316000000    -2.392000000    -3.163000000
H     1.476000000    -2.827000000    -2.627000000
C     4.513000000    -1.529000000    -3.053000000
H     5.365000000    -1.210000000    -2.458000000
C     4.420000000    -1.013000000    -4.341000000
O     5.415000000    -0.191000000    -4.893000000
C     3.231000000    -1.138000000    -5.017000000
H     2.998000000    -0.592000000    -5.927000000
C     2.203000000    -1.925000000    -4.478000000
O     1.081000000    -2.285000000    -5.185000000
C     0.556000000    -3.618000000    -5.249000000
C    -0.705000000    -3.771000000    -4.760000000
H    -1.230000000    -2.907000000    -4.362000000
C     1.250000000    -4.672000000    -5.866000000
H     2.232000000    -4.525000000    -6.310000000
C     0.530000000    -5.838000000    -6.014000000
H     0.912000000    -6.603000000    -6.685000000
C    -0.776000000    -5.978000000    -5.547000000
H    -1.192000000    -6.980000000    -5.607000000
C    -1.340000000    -4.974000000    -4.796000000
O    -2.613000000    -5.110000000    -4.299000000
C    -3.035000000    -4.392000000    -3.221000000
C    -4.122000000    -3.526000000    -3.380000000
H    -4.653000000    -3.449000000    -4.325000000
C    -4.512000000    -2.703000000    -2.329000000
O    -5.546000000    -1.720000000    -2.626000000
C    -6.321000000    -1.210000000    -1.562000000
C    -6.102000000     0.098000000    -1.093000000
H    -5.433000000     0.821000000    -1.553000000
C    -7.254000000    -2.042000000    -0.916000000
H    -7.294000000    -3.069000000    -1.268000000
C    -8.071000000    -1.520000000     0.153000000
H    -8.743000000    -2.202000000     0.668000000
C    -7.881000000    -0.197000000     0.546000000
H    -8.521000000     0.264000000     1.294000000
C    -6.965000000     0.638000000    -0.114000000
O    -6.869000000     1.933000000     0.317000000
C    -5.657000000     2.404000000     0.812000000
C    -5.336000000     3.642000000     0.378000000
H    -5.914000000     4.107000000    -0.417000000
C    -4.155000000     4.231000000     0.688000000
O    -3.797000000     5.438000000     0.003000000
C    -2.749000000     6.245000000     0.498000000
C    -1.462000000     6.042000000    -0.025000000
H    -1.299000000     5.194000000    -0.685000000
C    -2.974000000     7.337000000     1.312000000
H    -3.970000000     7.430000000     1.738000000
C    -1.920000000     8.244000000     1.569000000
H    -2.069000000     9.109000000     2.210000000
C    -0.621000000     8.003000000     1.041000000
H     0.162000000     8.754000000     1.123000000
C    -0.417000000     6.854000000     0.294000000
O     0.800000000     6.718000000    -0.325000000
C     1.460000000     5.528000000    -0.601000000
C     1.912000000     5.176000000    -1.902000000
H     1.851000000     5.800000000    -2.790000000
C     2.788000000     4.098000000    -2.129000000
O     3.336000000     3.800000000    -3.422000000
C     4.442000000     3.051000000    -3.620000000
C     5.667000000     3.649000000    -3.357000000
H     5.689000000     4.615000000    -2.858000000
C     6.766000000     2.953000000    -3.692000000
H     7.762000000     3.360000000    -3.535000000
C     6.693000000     1.684000000    -4.151000000
H     7.630000000     1.206000000    -4.424000000
C     5.483000000     1.063000000    -4.406000000
C     4.276000000     1.791000000    -4.112000000
H     3.281000000     1.412000000    -4.331000000
C     0.458000000     0.119000000    -2.512000000
H     1.215000000     0.363000000    -3.253000000
C     0.749000000    -0.008000000    -1.134000000
H     1.761000000     0.201000000    -0.796000000
C    -0.250000000    -0.192000000    -0.209000000
C     0.181000000    -0.335000000     1.259000000
H     1.212000000    -0.667000000     1.403000000
H     0.032000000     0.549000000     1.883000000
H    -0.248000000    -1.261000000     1.648000000
C    -1.514000000    -0.540000000    -0.704000000
H    -2.315000000    -0.689000000     0.015000000
C    -1.824000000    -0.508000000    -2.054000000
H    -2.867000000    -0.675000000    -2.310000000
C    -0.844000000    -0.038000000    -3.015000000
C    -1.200000000     0.182000000    -4.465000000
O    -2.220000000    -0.287000000    -4.881000000
O    -0.451000000     0.724000000    -5.214000000
O     0.328000000    -3.407000000    -8.715000000
H     0.204000000    -4.332000000    -8.931000000
H     0.721000000    -3.028000000    -9.501000000
O    -1.749000000     5.397000000    -3.275000000
H    -1.940000000     6.320000000    -3.103000000
H    -1.502000000     5.372000000    -4.200000000
O    -5.252000000    -1.499000000    -6.835000000
H    -6.024000000    -1.974000000    -6.528000000
H    -4.563000000    -2.161000000    -6.875000000
O    -4.772000000     4.979000000    -5.772000000
H    -5.482000000     4.349000000    -5.897000000
H    -3.972000000     4.461000000    -5.867000000
O    -7.045000000    -0.031000000    -4.317000000
H    -6.558000000     0.145000000    -3.511000000
H    -7.302000000    -0.950000000    -4.245000000
O     1.464000000     2.391000000    -6.024000000
H     0.873000000     1.683000000    -5.764000000
H     0.931000000     2.952000000    -6.588000000
O    -5.335000000     2.922000000    -2.908000000
H    -4.447000000     2.858000000    -2.556000000
H    -5.374000000     2.245000000    -3.583000000
O    -4.505000000     0.795000000    -4.332000000
H    -3.598000000     0.509000000    -4.437000000
H    -4.988000000     0.309000000    -5.000000000
O    -3.944000000    -4.734000000    -6.804000000
H    -3.236000000    -4.120000000    -6.996000000
H    -3.715000000    -5.106000000    -5.952000000
O    -0.488000000     3.921000000    -7.725000000
H    -1.236000000     3.637000000    -7.200000000
H    -0.874000000     4.233000000    -8.544000000
O    -2.613000000    -2.186000000    -6.692000000
H    -2.560000000    -1.536000000    -5.991000000
H    -2.556000000    -1.673000000    -7.498000000
O    -3.886000000     2.017000000    -8.339000000
H    -4.526000000     2.669000000    -8.624000000
H    -3.190000000     2.062000000    -8.996000000
O     2.413000000     5.265000000    -5.675000000
H     2.125000000     4.353000000    -5.729000000
H     3.096000000     5.260000000    -5.005000000
O     3.096000000    -2.098000000    -8.331000000
H     2.960000000    -2.916000000    -8.809000000
H     2.213000000    -1.786000000    -8.133000000
O    -2.338000000     2.566000000    -6.140000000
H    -1.725000000     1.940000000    -5.756000000
H    -2.860000000     2.046000000    -6.752000000
O    -0.072000000    -0.967000000    -7.483000000
H     0.014000000    -1.905000000    -7.317000000
H    -0.202000000    -0.582000000    -6.616000000
O    -6.315000000     1.281000000    -6.790000000
H    -6.557000000     0.697000000    -6.072000000
H    -5.397000000     1.079000000    -6.966000000
O    -2.501000000     3.087000000    -1.972000000
H    -2.157000000     3.776000000    -2.541000000
H    -1.754000000     2.509000000    -1.818000000
O     0.419000000     0.918000000    -9.677000000
H     0.091000000     0.364000000    -8.969000000
H    -0.323000000     1.476000000    -9.908000000
