218
-1472.79052
C    -3.910000000    -3.111000000    -0.864000000
H    -4.336000000    -2.775000000     0.078000000
C    -2.697000000    -3.717000000    -0.866000000
C    -2.188000000    -4.170000000    -2.091000000
H    -1.200000000    -4.601000000    -2.226000000
C    -1.854000000    -3.749000000     0.396000000
O    -2.655000000    -3.978000000     1.642000000
H    -1.370000000    -2.773000000     0.548000000
O    -0.828000000    -4.641000000     0.164000000
C     0.435000000    -4.383000000     0.527000000
C     1.473000000    -4.327000000    -0.360000000
H     1.227000000    -4.445000000    -1.412000000
C     2.751000000    -3.886000000    -0.004000000
O     3.598000000    -3.594000000    -1.018000000
C     3.057000000    -3.669000000     1.313000000
C     4.404000000    -3.107000000     1.719000000
H     4.650000000    -3.384000000     2.747000000
C     4.402000000    -1.574000000     1.523000000
C     4.199000000    -0.789000000     2.670000000
H     3.836000000    -1.335000000     3.536000000
H     5.184000000    -3.560000000     1.104000000
C     2.089000000    -3.953000000     2.300000000
H     2.310000000    -3.849000000     3.360000000
C     0.802000000    -4.320000000     1.877000000
C    -0.150000000    -4.626000000     3.006000000
H     0.396000000    -4.993000000     3.878000000
H    -0.798000000    -5.457000000     2.719000000
C    -1.065000000    -3.415000000     3.363000000
C    -0.656000000    -2.406000000     4.210000000
H     0.286000000    -2.577000000     4.723000000
C    -2.269000000    -3.167000000     2.703000000
C    -3.041000000    -2.046000000     2.840000000
H    -3.932000000    -1.821000000     2.261000000
C    -2.563000000    -1.091000000     3.795000000
O    -3.234000000     0.120000000     3.772000000
C    -2.669000000     1.179000000     3.062000000
C    -3.769000000     2.017000000     2.388000000
C    -3.571000000     3.350000000     2.070000000
H    -2.629000000     3.860000000     2.257000000
C    -4.968000000     1.415000000     1.967000000
H    -5.046000000     0.340000000     2.109000000
O    -1.857000000     2.016000000     3.971000000
H    -1.992000000     0.773000000     2.297000000
C    -1.385000000    -1.268000000     4.470000000
C    -0.767000000    -0.255000000     5.433000000
H    -0.185000000    -0.880000000     6.113000000
H    -1.547000000     0.238000000     6.018000000
C     0.048000000     0.791000000     4.714000000
C     1.409000000     0.681000000     4.747000000
H     1.890000000    -0.201000000     5.161000000
C    -0.552000000     1.839000000     4.099000000
C     0.208000000     2.716000000     3.365000000
H    -0.278000000     3.511000000     2.805000000
C     1.587000000     2.671000000     3.397000000
O     2.287000000     3.397000000     2.520000000
C     2.533000000     3.000000000     1.137000000
C     2.329000000     4.187000000     0.187000000
C     1.520000000     5.217000000     0.520000000
H     1.025000000     5.275000000     1.486000000
C     2.823000000     4.086000000    -1.086000000
H     3.395000000     3.269000000    -1.518000000
O     3.931000000     2.494000000     1.088000000
H     1.804000000     2.272000000     0.750000000
C     2.190000000     1.622000000     4.033000000
C     3.682000000     1.428000000     3.813000000
H     4.098000000     1.049000000     4.749000000
H     4.101000000     2.433000000     3.738000000
C     4.022000000     0.592000000     2.627000000
C     4.237000000     1.223000000     1.383000000
C     4.636000000     0.469000000     0.286000000
H     4.896000000     1.024000000    -0.612000000
C     4.690000000    -0.895000000     0.311000000
O     4.931000000    -1.544000000    -0.856000000
C     3.754000000    -2.166000000    -1.445000000
H     2.802000000    -1.734000000    -1.101000000
C     3.610000000    -1.871000000    -2.916000000
C     2.874000000    -2.761000000    -3.709000000
H     2.649000000    -3.726000000    -3.263000000
C     4.175000000    -0.680000000    -3.454000000
H     4.802000000    -0.063000000    -2.815000000
C     3.945000000    -0.408000000    -4.779000000
O     4.242000000     0.788000000    -5.439000000
C     3.211000000    -1.317000000    -5.508000000
H     3.050000000    -0.989000000    -6.532000000
C     2.660000000    -2.494000000    -5.006000000
O     2.089000000    -3.390000000    -5.839000000
C     1.121000000    -4.388000000    -5.419000000
C    -0.129000000    -3.958000000    -5.087000000
H    -0.398000000    -2.929000000    -5.309000000
C     1.447000000    -5.807000000    -5.368000000
H     2.413000000    -6.165000000    -5.713000000
C     0.454000000    -6.667000000    -4.847000000
H     0.702000000    -7.723000000    -4.783000000
C    -0.817000000    -6.212000000    -4.549000000
H    -1.585000000    -6.886000000    -4.178000000
C    -1.138000000    -4.849000000    -4.624000000
O    -2.480000000    -4.549000000    -4.482000000
C    -2.980000000    -4.011000000    -3.244000000
C    -4.219000000    -3.349000000    -3.172000000
H    -4.700000000    -3.177000000    -4.132000000
C    -4.704000000    -2.859000000    -1.991000000
O    -5.841000000    -2.095000000    -2.062000000
C    -6.576000000    -1.661000000    -1.024000000
C    -6.429000000    -0.364000000    -0.604000000
H    -5.753000000     0.361000000    -1.050000000
C    -7.389000000    -2.471000000    -0.370000000
H    -7.429000000    -3.493000000    -0.739000000
C    -8.151000000    -2.052000000     0.726000000
H    -8.804000000    -2.736000000     1.261000000
C    -7.913000000    -0.743000000     1.187000000
H    -8.429000000    -0.345000000     2.057000000
C    -7.124000000     0.134000000     0.454000000
O    -7.017000000     1.482000000     0.787000000
C    -5.884000000     2.157000000     1.260000000
C    -5.724000000     3.486000000     1.052000000
H    -6.454000000     4.032000000     0.460000000
C    -4.517000000     4.063000000     1.375000000
O    -4.119000000     5.329000000     0.804000000
C    -3.046000000     6.073000000     1.204000000
C    -1.974000000     6.256000000     0.293000000
H    -1.996000000     5.790000000    -0.688000000
C    -2.958000000     6.721000000     2.451000000
H    -3.790000000     6.686000000     3.149000000
C    -1.858000000     7.535000000     2.748000000
H    -1.865000000     8.018000000     3.722000000
C    -0.782000000     7.721000000     1.823000000
H     0.072000000     8.384000000     1.945000000
C    -0.876000000     7.043000000     0.607000000
O     0.224000000     7.152000000    -0.246000000
C     1.210000000     6.200000000    -0.452000000
C     1.724000000     6.117000000    -1.731000000
H     1.425000000     6.800000000    -2.522000000
C     2.556000000     5.072000000    -2.034000000
O     2.944000000     4.952000000    -3.351000000
C     3.957000000     4.079000000    -3.795000000
C     5.288000000     4.446000000    -3.708000000
H     5.614000000     5.352000000    -3.203000000
C     6.316000000     3.596000000    -4.281000000
H     7.361000000     3.883000000    -4.194000000
C     6.017000000     2.341000000    -4.852000000
H     6.750000000     1.650000000    -5.261000000
C     4.650000000     1.937000000    -4.831000000
C     3.674000000     2.795000000    -4.323000000
H     2.649000000     2.440000000    -4.247000000
C     0.760000000     0.351000000    -2.400000000
H     1.519000000     0.621000000    -3.129000000
C     1.174000000     0.218000000    -1.073000000
H     2.205000000     0.434000000    -0.803000000
C     0.235000000    -0.180000000    -0.092000000
C     0.690000000    -0.467000000     1.326000000
H     0.009000000    -1.119000000     1.877000000
H     1.676000000    -0.936000000     1.309000000
H     0.781000000     0.462000000     1.893000000
C    -1.116000000    -0.334000000    -0.450000000
H    -1.891000000    -0.701000000     0.218000000
C    -1.518000000    -0.161000000    -1.787000000
H    -2.521000000    -0.295000000    -2.186000000
C    -0.539000000     0.181000000    -2.759000000
C    -0.973000000     0.266000000    -4.224000000
O    -2.088000000    -0.091000000    -4.500000000
O    -0.265000000     0.663000000    -5.170000000
O    -1.182000000     3.448000000    -3.497000000
H    -0.536000000     3.998000000    -3.940000000
H    -1.921000000     3.410000000    -4.105000000
O    -4.523000000    -0.592000000    -8.472000000
H    -5.035000000    -1.325000000    -8.130000000
H    -3.706000000    -0.619000000    -7.974000000
O    -4.751000000     5.308000000    -4.852000000
H    -4.195000000     5.934000000    -4.388000000
H    -4.468000000     4.452000000    -4.528000000
O     0.562000000     2.888000000    -6.305000000
H     0.421000000     2.078000000    -5.816000000
H    -0.125000000     2.889000000    -6.971000000
O    -4.353000000     3.199000000    -3.127000000
H    -3.742000000     3.137000000    -2.392000000
H    -4.442000000     2.299000000    -3.441000000
O    -4.762000000     0.397000000    -4.319000000
H    -3.805000000     0.377000000    -4.348000000
H    -5.020000000    -0.525000000    -4.292000000
O    -2.523000000    -4.065000000    -7.097000000
H    -2.637000000    -3.119000000    -7.001000000
H    -2.690000000    -4.416000000    -6.222000000
O    -0.868000000     2.912000000    -9.046000000
H    -1.119000000     1.991000000    -9.119000000
H    -0.168000000     3.021000000    -9.690000000
O    -2.389000000    -1.324000000    -7.004000000
H    -2.185000000    -1.194000000    -6.078000000
H    -1.582000000    -1.092000000    -7.462000000
O    -4.867000000     2.053000000    -7.732000000
H    -5.163000000     2.806000000    -8.243000000
H    -4.576000000     1.418000000    -8.387000000
O     2.475000000     1.513000000    -8.035000000
H     2.684000000     2.330000000    -8.488000000
H     1.842000000     1.767000000    -7.363000000
O     0.853000000     5.592000000    -6.749000000
H     0.761000000     5.518000000    -7.699000000
H     1.082000000     4.709000000    -6.461000000
O     2.129000000    -2.890000000    -9.337000000
H     2.555000000    -3.645000000    -8.930000000
H     1.207000000    -2.978000000    -9.097000000
O    -2.881000000     2.823000000    -5.993000000
H    -2.367000000     2.025000000    -5.872000000
H    -3.694000000     2.526000000    -6.400000000
O     0.061000000    -0.368000000    -7.631000000
H     1.008000000    -0.347000000    -7.770000000
H    -0.068000000     0.073000000    -6.791000000
O    -6.965000000     1.322000000    -6.006000000
H    -6.276000000     1.265000000    -6.667000000
H    -6.518000000     1.639000000    -5.221000000
O    -2.332000000     2.792000000    -1.241000000
H    -1.742000000     3.190000000    -1.881000000
H    -2.066000000     1.873000000    -1.208000000
O    -1.034000000     0.291000000   -10.190000000
H    -0.577000000    -0.045000000    -9.419000000
H    -1.105000000    -0.465000000   -10.774000000
O    -2.538000000     4.925000000    -8.322000000
H    -1.812000000     4.322000000    -8.483000000
H    -3.249000000     4.366000000    -8.009000000
