218
-1465.91116
C    -3.848000000    -3.160000000    -2.427000000
H    -4.418000000    -3.334000000    -1.518000000
C    -2.444000000    -3.172000000    -2.397000000
C    -1.706000000    -2.800000000    -3.567000000
H    -0.629000000    -2.894000000    -3.679000000
C    -1.737000000    -3.619000000    -1.089000000
O    -2.641000000    -4.122000000    -0.125000000
H    -1.298000000    -2.728000000    -0.617000000
O    -0.612000000    -4.551000000    -1.296000000
C     0.535000000    -4.478000000    -0.519000000
C     1.597000000    -3.892000000    -1.136000000
H     1.528000000    -3.603000000    -2.181000000
C     2.764000000    -3.714000000    -0.511000000
O     3.812000000    -3.117000000    -1.163000000
C     2.892000000    -3.977000000     0.830000000
C     4.124000000    -3.500000000     1.643000000
H     4.251000000    -4.068000000     2.567000000
C     4.035000000    -2.029000000     1.954000000
C     3.416000000    -1.649000000     3.138000000
H     3.198000000    -2.449000000     3.840000000
H     5.009000000    -3.734000000     1.047000000
C     1.787000000    -4.482000000     1.567000000
H     1.913000000    -4.716000000     2.621000000
C     0.616000000    -4.727000000     0.865000000
C    -0.656000000    -5.275000000     1.675000000
H    -0.286000000    -5.790000000     2.564000000
H    -1.281000000    -5.874000000     1.010000000
C    -1.567000000    -4.086000000     2.064000000
C    -1.405000000    -3.440000000     3.325000000
H    -0.599000000    -3.766000000     3.977000000
C    -2.484000000    -3.614000000     1.110000000
C    -3.365000000    -2.622000000     1.486000000
H    -4.095000000    -2.267000000     0.763000000
C    -3.144000000    -1.909000000     2.640000000
O    -3.928000000    -0.825000000     2.947000000
C    -3.348000000     0.469000000     2.707000000
C    -4.144000000     1.417000000     1.836000000
C    -3.765000000     2.733000000     1.757000000
H    -2.949000000     2.995000000     2.427000000
C    -5.195000000     0.866000000     1.090000000
H    -5.342000000    -0.205000000     1.200000000
O    -2.981000000     1.020000000     3.998000000
H    -2.379000000     0.305000000     2.211000000
C    -2.147000000    -2.261000000     3.601000000
C    -2.006000000    -1.569000000     4.894000000
H    -1.655000000    -2.277000000     5.648000000
H    -3.026000000    -1.315000000     5.189000000
C    -1.086000000    -0.365000000     4.839000000
C     0.266000000    -0.584000000     5.054000000
H     0.628000000    -1.598000000     5.206000000
C    -1.592000000     0.876000000     4.357000000
C    -0.699000000     1.883000000     4.136000000
H    -1.069000000     2.776000000     3.637000000
C     0.694000000     1.662000000     4.240000000
O     1.600000000     2.661000000     3.837000000
C     2.301000000     2.474000000     2.607000000
C     2.385000000     3.784000000     1.821000000
C     1.311000000     4.672000000     1.868000000
H     0.439000000     4.450000000     2.477000000
C     3.479000000     4.061000000     0.911000000
H     4.286000000     3.340000000     0.808000000
O     3.613000000     2.006000000     2.835000000
H     1.835000000     1.773000000     1.898000000
C     1.164000000     0.468000000     4.722000000
C     2.672000000     0.204000000     4.779000000
H     2.710000000    -0.659000000     5.447000000
H     3.133000000     1.114000000     5.167000000
C     3.291000000    -0.343000000     3.482000000
C     3.844000000     0.619000000     2.649000000
C     4.475000000     0.304000000     1.465000000
H     4.886000000     1.037000000     0.776000000
C     4.556000000    -1.004000000     1.090000000
O     5.010000000    -1.326000000    -0.208000000
C     3.878000000    -1.712000000    -1.064000000
H     2.962000000    -1.383000000    -0.552000000
C     3.992000000    -1.025000000    -2.462000000
C     3.490000000    -1.689000000    -3.578000000
H     3.061000000    -2.670000000    -3.394000000
C     4.469000000     0.327000000    -2.522000000
H     4.812000000     0.856000000    -1.637000000
C     4.516000000     1.009000000    -3.742000000
O     5.131000000     2.210000000    -3.882000000
C     4.100000000     0.243000000    -4.891000000
H     4.372000000     0.648000000    -5.863000000
C     3.408000000    -0.957000000    -4.759000000
O     3.006000000    -1.560000000    -5.940000000
C     1.928000000    -2.405000000    -5.973000000
C     0.636000000    -1.834000000    -6.064000000
H     0.374000000    -0.803000000    -5.842000000
C     2.087000000    -3.757000000    -5.981000000
H     3.072000000    -4.192000000    -6.134000000
C     0.926000000    -4.574000000    -6.021000000
H     0.882000000    -5.653000000    -5.898000000
C    -0.348000000    -4.087000000    -6.205000000
H    -1.224000000    -4.730000000    -6.213000000
C    -0.468000000    -2.681000000    -6.118000000
O    -1.708000000    -2.079000000    -5.929000000
C    -2.418000000    -2.369000000    -4.717000000
C    -3.799000000    -2.231000000    -4.649000000
H    -4.280000000    -1.880000000    -5.558000000
C    -4.509000000    -2.585000000    -3.494000000
O    -5.878000000    -2.564000000    -3.563000000
C    -6.576000000    -1.959000000    -2.534000000
C    -6.284000000    -0.656000000    -2.114000000
H    -5.501000000    -0.043000000    -2.553000000
C    -7.486000000    -2.729000000    -1.820000000
H    -7.638000000    -3.769000000    -2.099000000
C    -8.305000000    -2.144000000    -0.825000000
H    -9.088000000    -2.675000000    -0.289000000
C    -8.056000000    -0.872000000    -0.497000000
H    -8.617000000    -0.374000000     0.289000000
C    -7.010000000    -0.106000000    -1.045000000
O    -6.909000000     1.269000000    -0.650000000
C    -5.880000000     1.697000000     0.233000000
C    -5.584000000     3.100000000     0.241000000
H    -6.097000000     3.836000000    -0.373000000
C    -4.490000000     3.542000000     0.954000000
O    -4.089000000     4.853000000     0.764000000
C    -3.154000000     5.463000000     1.509000000
C    -1.876000000     5.709000000     0.941000000
H    -1.565000000     5.381000000    -0.047000000
C    -3.474000000     5.966000000     2.761000000
H    -4.445000000     5.699000000     3.171000000
C    -2.576000000     6.743000000     3.464000000
H    -2.767000000     7.113000000     4.468000000
C    -1.319000000     7.032000000     2.875000000
H    -0.714000000     7.758000000     3.411000000
C    -0.952000000     6.478000000     1.647000000
O     0.273000000     6.724000000     1.127000000
C     1.290000000     5.766000000     1.051000000
C     2.389000000     6.103000000     0.221000000
H     2.368000000     7.039000000    -0.332000000
C     3.443000000     5.224000000     0.116000000
O     4.578000000     5.630000000    -0.589000000
C     5.444000000     4.737000000    -1.226000000
C     6.792000000     4.703000000    -0.916000000
H     7.141000000     5.528000000    -0.299000000
C     7.677000000     3.841000000    -1.588000000
H     8.757000000     3.924000000    -1.491000000
C     7.071000000     2.932000000    -2.481000000
H     7.723000000     2.344000000    -3.122000000
C     5.699000000     2.919000000    -2.795000000
C     4.913000000     3.862000000    -2.177000000
H     3.932000000     4.105000000    -2.578000000
C     1.098000000     1.343000000    -1.879000000
H     1.927000000     1.914000000    -2.290000000
C     1.280000000     0.650000000    -0.696000000
H     2.300000000     0.693000000    -0.322000000
C     0.159000000    -0.052000000    -0.161000000
C     0.233000000    -0.822000000     1.165000000
H    -0.147000000    -0.301000000     2.046000000
H    -0.287000000    -1.776000000     1.051000000
H     1.226000000    -1.226000000     1.372000000
C    -1.114000000     0.058000000    -0.790000000
H    -2.052000000    -0.371000000    -0.446000000
C    -1.215000000     0.699000000    -1.999000000
H    -2.102000000     0.641000000    -2.624000000
C    -0.149000000     1.392000000    -2.540000000
C    -0.250000000     2.127000000    -3.920000000
O    -1.300000000     2.258000000    -4.530000000
O     0.743000000     2.657000000    -4.342000000
O     0.169000000     4.083000000    -8.635000000
H    -0.341000000     4.335000000    -7.865000000
H     0.950000000     3.660000000    -8.278000000
O    -4.855000000     2.898000000    -2.966000000
H    -5.369000000     3.014000000    -2.167000000
H    -5.486000000     3.010000000    -3.676000000
O     1.664000000     1.390000000    -6.755000000
H     1.842000000     1.506000000    -5.822000000
H     0.713000000     1.298000000    -6.808000000
O     2.982000000     7.506000000    -2.888000000
H     3.900000000     7.369000000    -2.656000000
H     2.649000000     6.628000000    -3.077000000
O    -2.632000000     6.651000000    -2.545000000
H    -3.507000000     6.735000000    -2.166000000
H    -2.700000000     5.907000000    -3.143000000
O    -2.864000000     4.336000000    -4.131000000
H    -2.314000000     3.572000000    -4.304000000
H    -3.723000000     3.971000000    -3.924000000
O     1.676000000     5.783000000    -6.542000000
H     2.365000000     5.555000000    -5.918000000
H     0.864000000     5.520000000    -6.109000000
O     0.590000000    -0.625000000    -9.226000000
H    -0.154000000    -0.675000000    -8.627000000
H     0.595000000     0.284000000    -9.527000000
O    -0.273000000     7.036000000    -4.146000000
H     0.046000000     7.939000000    -4.125000000
H    -1.135000000     7.077000000    -3.732000000
O     3.984000000     1.041000000    -8.645000000
H     3.180000000     1.217000000    -8.156000000
H     3.862000000     0.159000000    -8.997000000
O    -5.888000000     0.896000000    -6.053000000
H    -6.140000000     1.663000000    -5.538000000
H    -5.009000000     0.678000000    -5.743000000
O    -1.069000000     1.538000000    -6.949000000
H    -2.002000000     1.422000000    -7.127000000
H    -1.020000000     1.666000000    -6.002000000
O    -2.841000000     3.142000000    -9.407000000
H    -3.796000000     3.083000000    -9.387000000
H    -2.545000000     2.232000000    -9.413000000
O    -2.486000000    -1.474000000    -8.527000000
H    -3.108000000    -0.751000000    -8.446000000
H    -2.160000000    -1.611000000    -7.637000000
O    -0.782000000     4.506000000    -5.957000000
H    -0.717000000     3.583000000    -5.715000000
H    -1.505000000     4.843000000    -5.428000000
O    -3.629000000     0.972000000    -4.550000000
H    -2.745000000     1.338000000    -4.558000000
H    -4.021000000     1.312000000    -3.745000000
O     1.837000000     5.141000000    -3.874000000
H     1.409000000     4.285000000    -3.908000000
H     1.145000000     5.763000000    -4.097000000
O    -6.481000000     3.339000000    -5.199000000
H    -5.828000000     4.022000000    -5.353000000
H    -7.313000000     3.744000000    -5.442000000
O    -0.362000000     1.759000000   -10.100000000
H    -0.623000000     2.581000000    -9.684000000
H    -1.084000000     1.551000000   -10.693000000
