218
-1461.90123
C    -3.986000000    -3.388000000    -0.936000000
H    -4.268000000    -2.880000000    -0.017000000
C    -2.747000000    -4.098000000    -0.944000000
C    -2.305000000    -4.626000000    -2.159000000
H    -1.298000000    -5.010000000    -2.296000000
C    -1.773000000    -4.016000000     0.310000000
O    -2.468000000    -4.159000000     1.538000000
H    -1.403000000    -2.983000000     0.235000000
O    -0.686000000    -5.037000000     0.143000000
C     0.561000000    -4.717000000     0.454000000
C     1.400000000    -4.351000000    -0.644000000
H     1.067000000    -4.428000000    -1.677000000
C     2.590000000    -3.728000000    -0.323000000
O     3.341000000    -3.348000000    -1.342000000
C     3.025000000    -3.610000000     0.991000000
C     4.430000000    -3.041000000     1.294000000
H     4.726000000    -3.460000000     2.258000000
C     4.421000000    -1.569000000     1.440000000
C     4.106000000    -0.976000000     2.645000000
H     3.915000000    -1.539000000     3.555000000
H     5.142000000    -3.247000000     0.492000000
C     2.196000000    -3.952000000     2.041000000
H     2.509000000    -3.852000000     3.077000000
C     0.930000000    -4.541000000     1.791000000
C    -0.012000000    -4.647000000     2.926000000
H     0.670000000    -4.932000000     3.730000000
H    -0.673000000    -5.489000000     2.713000000
C    -0.811000000    -3.430000000     3.169000000
C    -0.350000000    -2.466000000     4.024000000
H     0.622000000    -2.415000000     4.508000000
C    -2.077000000    -3.308000000     2.609000000
C    -2.881000000    -2.172000000     2.805000000
H    -3.788000000    -2.131000000     2.206000000
C    -2.475000000    -1.237000000     3.784000000
O    -3.195000000    -0.052000000     3.799000000
C    -2.553000000     1.057000000     3.211000000
C    -3.678000000     1.928000000     2.482000000
C    -3.511000000     3.308000000     2.194000000
H    -2.575000000     3.797000000     2.450000000
C    -4.776000000     1.317000000     1.967000000
H    -4.833000000     0.232000000     2.008000000
O    -1.888000000     1.818000000     4.211000000
H    -1.932000000     0.661000000     2.394000000
C    -1.240000000    -1.420000000     4.391000000
C    -0.816000000    -0.406000000     5.490000000
H    -0.255000000    -0.840000000     6.321000000
H    -1.651000000     0.029000000     6.042000000
C     0.067000000     0.713000000     4.913000000
C     1.444000000     0.583000000     4.876000000
H     1.948000000    -0.231000000     5.392000000
C    -0.549000000     1.799000000     4.245000000
C     0.174000000     2.680000000     3.564000000
H    -0.264000000     3.496000000     2.994000000
C     1.563000000     2.520000000     3.492000000
O     2.313000000     3.360000000     2.766000000
C     2.755000000     3.026000000     1.403000000
C     2.425000000     4.009000000     0.245000000
C     1.335000000     4.866000000     0.488000000
H     0.708000000     4.836000000     1.376000000
C     3.179000000     4.117000000    -0.900000000
H     3.941000000     3.397000000    -1.188000000
O     4.135000000     2.602000000     1.424000000
H     2.228000000     2.074000000     1.236000000
C     2.188000000     1.432000000     4.122000000
C     3.738000000     1.186000000     3.987000000
H     4.141000000     0.581000000     4.801000000
H     4.272000000     2.139000000     3.961000000
C     4.061000000     0.457000000     2.644000000
C     4.320000000     1.236000000     1.526000000
C     4.606000000     0.640000000     0.249000000
H     4.653000000     1.205000000    -0.678000000
C     4.571000000    -0.798000000     0.262000000
O     4.694000000    -1.410000000    -0.983000000
C     3.488000000    -1.903000000    -1.631000000
H     2.562000000    -1.457000000    -1.239000000
C     3.368000000    -1.602000000    -3.085000000
C     2.252000000    -2.091000000    -3.776000000
H     1.595000000    -2.831000000    -3.326000000
C     4.021000000    -0.466000000    -3.628000000
H     4.811000000     0.052000000    -3.090000000
C     3.543000000     0.079000000    -4.882000000
O     4.256000000     1.084000000    -5.476000000
C     2.442000000    -0.442000000    -5.508000000
H     2.131000000    -0.072000000    -6.482000000
C     1.819000000    -1.491000000    -4.950000000
O     0.680000000    -1.963000000    -5.539000000
C     0.274000000    -3.287000000    -5.465000000
C    -0.969000000    -3.559000000    -4.921000000
H    -1.673000000    -2.786000000    -4.623000000
C     1.014000000    -4.286000000    -6.035000000
H     2.021000000    -4.102000000    -6.399000000
C     0.547000000    -5.608000000    -6.040000000
H     1.143000000    -6.456000000    -6.367000000
C    -0.659000000    -5.930000000    -5.424000000
H    -1.092000000    -6.918000000    -5.283000000
C    -1.374000000    -4.879000000    -4.831000000
O    -2.662000000    -5.117000000    -4.446000000
C    -3.170000000    -4.580000000    -3.298000000
C    -4.366000000    -3.914000000    -3.208000000
H    -5.016000000    -3.904000000    -4.080000000
C    -4.824000000    -3.313000000    -2.027000000
O    -5.987000000    -2.614000000    -2.044000000
C    -6.521000000    -2.064000000    -0.954000000
C    -6.429000000    -0.660000000    -0.848000000
H    -6.006000000    -0.133000000    -1.699000000
C    -7.067000000    -2.809000000     0.084000000
H    -7.087000000    -3.896000000     0.049000000
C    -7.546000000    -2.169000000     1.173000000
H    -7.980000000    -2.799000000     1.945000000
C    -7.465000000    -0.784000000     1.328000000
H    -7.817000000    -0.194000000     2.171000000
C    -6.862000000    -0.020000000     0.325000000
O    -6.721000000     1.331000000     0.383000000
C    -5.650000000     1.971000000     1.113000000
C    -5.540000000     3.427000000     0.926000000
H    -6.268000000     3.927000000     0.292000000
C    -4.421000000     4.063000000     1.422000000
O    -4.266000000     5.397000000     1.122000000
C    -3.079000000     6.031000000     1.390000000
C    -2.062000000     6.072000000     0.464000000
H    -2.125000000     5.456000000    -0.429000000
C    -2.937000000     6.753000000     2.657000000
H    -3.669000000     6.722000000     3.460000000
C    -1.817000000     7.455000000     2.884000000
H    -1.625000000     7.854000000     3.876000000
C    -0.858000000     7.556000000     1.883000000
H     0.064000000     8.096000000     2.087000000
C    -0.902000000     6.770000000     0.742000000
O     0.161000000     6.841000000    -0.179000000
C     1.072000000     5.918000000    -0.413000000
C     1.791000000     5.986000000    -1.585000000
H     1.620000000     6.843000000    -2.231000000
C     2.813000000     5.037000000    -1.855000000
O     3.382000000     5.152000000    -3.129000000
C     4.288000000     4.213000000    -3.612000000
C     5.641000000     4.234000000    -3.179000000
H     6.056000000     5.079000000    -2.635000000
C     6.530000000     3.275000000    -3.549000000
H     7.564000000     3.316000000    -3.217000000
C     6.068000000     2.162000000    -4.288000000
H     6.701000000     1.318000000    -4.548000000
C     4.726000000     2.182000000    -4.781000000
C     3.893000000     3.181000000    -4.453000000
H     2.829000000     3.135000000    -4.674000000
C    -0.820000000     2.594000000    -1.460000000
H    -0.344000000     3.542000000    -1.698000000
C    -0.143000000     1.705000000    -0.642000000
H     0.914000000     1.879000000    -0.460000000
C    -0.702000000     0.549000000    -0.163000000
C    -0.033000000    -0.394000000     0.803000000
H     0.581000000    -1.021000000     0.153000000
H     0.624000000     0.179000000     1.461000000
H    -0.653000000    -1.054000000     1.413000000
C    -2.000000000     0.321000000    -0.485000000
H    -2.512000000    -0.521000000    -0.027000000
C    -2.706000000     1.170000000    -1.404000000
H    -3.699000000     0.872000000    -1.731000000
C    -2.105000000     2.282000000    -1.950000000
C    -2.852000000     3.172000000    -2.823000000
O    -3.975000000     2.870000000    -3.256000000
O    -2.386000000     4.219000000    -3.153000000
O    -0.769000000     7.507000000    -6.000000000
H    -1.715000000     7.566000000    -6.131000000
H    -0.635000000     6.646000000    -5.602000000
O    -0.188000000     0.977000000    -6.490000000
H    -0.995000000     0.717000000    -6.045000000
H     0.491000000     0.898000000    -5.820000000
O     0.429000000     2.379000000    -4.147000000
H     0.109000000     1.506000000    -3.919000000
H    -0.134000000     2.977000000    -3.654000000
O    -1.016000000     0.107000000    -3.609000000
H    -1.737000000    -0.184000000    -4.168000000
H    -1.370000000     0.068000000    -2.721000000
O    -5.442000000     6.449000000    -1.504000000
H    -4.667000000     6.567000000    -2.053000000
H    -5.106000000     6.471000000    -0.607000000
O    -2.985000000    -0.563000000    -5.399000000
H    -3.482000000     0.159000000    -5.785000000
H    -3.364000000    -1.350000000    -5.790000000
O    -3.860000000     9.220000000    -3.332000000
H    -2.932000000     9.357000000    -3.523000000
H    -3.940000000     8.274000000    -3.205000000
O    -2.666000000     3.822000000    -6.936000000
H    -2.046000000     4.295000000    -6.381000000
H    -2.431000000     4.078000000    -7.828000000
O    -1.065000000     5.022000000    -5.232000000
H    -1.670000000     4.896000000    -4.502000000
H    -0.416000000     4.326000000    -5.128000000
O    -7.977000000    -0.242000000    -5.002000000
H    -8.283000000     0.492000000    -5.534000000
H    -7.275000000     0.126000000    -4.465000000
O    -3.455000000     6.582000000    -3.528000000
H    -3.136000000     5.680000000    -3.536000000
H    -3.508000000     6.826000000    -4.452000000
O    -6.308000000     6.869000000    -4.320000000
H    -6.180000000     7.817000000    -4.308000000
H    -5.678000000     6.534000000    -3.682000000
O    -5.562000000     0.896000000    -3.877000000
H    -4.879000000     1.492000000    -3.569000000
H    -5.296000000     0.666000000    -4.767000000
O    -5.293000000     3.788000000    -5.351000000
H    -4.621000000     3.402000000    -5.913000000
H    -4.932000000     3.725000000    -4.467000000
O    -6.951000000     3.365000000    -2.174000000
H    -6.043000000     3.555000000    -1.940000000
H    -6.888000000     2.721000000    -2.879000000
O    -5.645000000     5.696000000    -7.555000000
H    -6.295000000     5.338000000    -8.159000000
H    -5.479000000     4.988000000    -6.934000000
O    -4.006000000     1.423000000    -6.746000000
H    -4.373000000     1.257000000    -7.615000000
H    -3.506000000     2.233000000    -6.849000000
O    -8.024000000     4.059000000    -4.988000000
H    -8.067000000     4.761000000    -4.339000000
H    -7.184000000     4.190000000    -5.427000000
O    -8.438000000     6.275000000    -1.570000000
H    -7.748000000     5.636000000    -1.394000000
H    -8.027000000     6.918000000    -2.148000000
