218
-1465.06989
C    -3.809000000    -3.427000000    -2.231000000
H    -4.448000000    -3.603000000    -1.370000000
C    -2.428000000    -3.543000000    -2.086000000
C    -1.545000000    -3.218000000    -3.129000000
H    -0.470000000    -3.259000000    -2.975000000
C    -1.825000000    -3.672000000    -0.707000000
O    -2.779000000    -3.848000000     0.388000000
H    -1.403000000    -2.659000000    -0.642000000
O    -0.661000000    -4.612000000    -0.661000000
C     0.466000000    -4.235000000     0.011000000
C     1.540000000    -3.917000000    -0.791000000
H     1.503000000    -3.928000000    -1.878000000
C     2.777000000    -3.625000000    -0.136000000
O     3.856000000    -3.116000000    -0.852000000
C     2.812000000    -3.602000000     1.293000000
C     4.090000000    -3.176000000     1.970000000
H     4.016000000    -3.555000000     2.991000000
C     4.199000000    -1.640000000     2.193000000
C     3.620000000    -1.115000000     3.403000000
H     3.155000000    -1.798000000     4.109000000
H     4.961000000    -3.643000000     1.505000000
C     1.738000000    -3.996000000     2.049000000
H     1.787000000    -4.003000000     3.135000000
C     0.533000000    -4.308000000     1.399000000
C    -0.718000000    -4.837000000     2.204000000
H    -0.531000000    -5.354000000     3.147000000
H    -1.165000000    -5.635000000     1.607000000
C    -1.604000000    -3.653000000     2.522000000
C    -1.479000000    -3.017000000     3.735000000
H    -0.664000000    -3.289000000     4.400000000
C    -2.587000000    -3.297000000     1.640000000
C    -3.546000000    -2.351000000     1.917000000
H    -4.312000000    -2.145000000     1.173000000
C    -3.282000000    -1.626000000     3.076000000
O    -4.014000000    -0.479000000     3.289000000
C    -3.435000000     0.790000000     2.950000000
C    -4.429000000     1.626000000     2.226000000
C    -4.247000000     3.009000000     2.098000000
H    -3.560000000     3.604000000     2.693000000
C    -5.332000000     0.973000000     1.357000000
H    -5.417000000    -0.110000000     1.367000000
O    -2.871000000     1.521000000     4.090000000
H    -2.662000000     0.603000000     2.189000000
C    -2.217000000    -1.896000000     3.954000000
C    -1.936000000    -0.992000000     5.126000000
H    -1.567000000    -1.591000000     5.961000000
H    -2.847000000    -0.643000000     5.617000000
C    -1.060000000     0.172000000     4.892000000
C     0.314000000     0.111000000     5.012000000
H     0.844000000    -0.811000000     5.233000000
C    -1.559000000     1.364000000     4.330000000
C    -0.637000000     2.383000000     3.830000000
H    -0.944000000     3.322000000     3.377000000
C     0.683000000     2.293000000     4.047000000
O     1.571000000     3.195000000     3.356000000
C     2.125000000     2.782000000     2.077000000
C     2.001000000     3.856000000     1.030000000
C     0.797000000     4.509000000     0.834000000
H     0.038000000     4.236000000     1.562000000
C     2.982000000     4.121000000     0.103000000
H     3.951000000     3.643000000     0.220000000
O     3.486000000     2.395000000     2.432000000
H     1.634000000     1.893000000     1.656000000
C     1.170000000     1.154000000     4.617000000
C     2.706000000     0.878000000     4.772000000
H     2.822000000     0.283000000     5.680000000
H     3.257000000     1.751000000     5.128000000
C     3.446000000     0.279000000     3.602000000
C     3.761000000     1.029000000     2.462000000
C     4.505000000     0.606000000     1.372000000
H     4.742000000     1.274000000     0.548000000
C     4.673000000    -0.751000000     1.221000000
O     5.006000000    -1.241000000    -0.032000000
C     3.997000000    -1.783000000    -0.912000000
H     3.024000000    -1.327000000    -0.676000000
C     4.217000000    -1.341000000    -2.331000000
C     3.925000000    -2.137000000    -3.409000000
H     3.713000000    -3.199000000    -3.315000000
C     4.857000000    -0.156000000    -2.552000000
H     5.002000000     0.622000000    -1.807000000
C     5.132000000     0.292000000    -3.882000000
O     5.751000000     1.502000000    -4.110000000
C     4.670000000    -0.474000000    -4.951000000
H     4.824000000    -0.082000000    -5.953000000
C     3.955000000    -1.651000000    -4.679000000
O     3.674000000    -2.453000000    -5.771000000
C     2.474000000    -3.161000000    -5.728000000
C     1.222000000    -2.541000000    -5.552000000
H     1.279000000    -1.459000000    -5.641000000
C     2.549000000    -4.534000000    -6.067000000
H     3.520000000    -5.000000000    -6.213000000
C     1.403000000    -5.305000000    -6.036000000
H     1.435000000    -6.378000000    -6.210000000
C     0.174000000    -4.748000000    -5.759000000
H    -0.777000000    -5.274000000    -5.727000000
C     0.065000000    -3.341000000    -5.586000000
O    -1.184000000    -2.761000000    -5.450000000
C    -2.101000000    -3.013000000    -4.413000000
C    -3.449000000    -2.883000000    -4.602000000
H    -3.815000000    -2.632000000    -5.595000000
C    -4.306000000    -2.923000000    -3.463000000
O    -5.647000000    -2.502000000    -3.537000000
C    -6.319000000    -2.006000000    -2.434000000
C    -6.170000000    -0.675000000    -2.035000000
H    -5.551000000    -0.013000000    -2.636000000
C    -7.126000000    -2.903000000    -1.742000000
H    -7.344000000    -3.915000000    -2.073000000
C    -7.743000000    -2.499000000    -0.480000000
H    -8.289000000    -3.168000000     0.180000000
C    -7.662000000    -1.122000000    -0.158000000
H    -8.133000000    -0.748000000     0.747000000
C    -6.871000000    -0.249000000    -0.911000000
O    -6.849000000     1.113000000    -0.603000000
C    -6.018000000     1.714000000     0.373000000
C    -5.743000000     3.074000000     0.233000000
H    -6.213000000     3.705000000    -0.517000000
C    -4.900000000     3.700000000     1.119000000
O    -4.821000000     5.065000000     1.062000000
C    -3.676000000     5.800000000     1.320000000
C    -2.607000000     5.684000000     0.410000000
H    -2.792000000     5.222000000    -0.556000000
C    -3.512000000     6.669000000     2.433000000
H    -4.283000000     6.758000000     3.194000000
C    -2.368000000     7.430000000     2.595000000
H    -2.401000000     8.019000000     3.508000000
C    -1.279000000     7.258000000     1.680000000
H    -0.269000000     7.629000000     1.836000000
C    -1.424000000     6.358000000     0.620000000
O    -0.479000000     6.243000000    -0.375000000
C     0.664000000     5.492000000    -0.214000000
C     1.676000000     5.697000000    -1.133000000
H     1.555000000     6.493000000    -1.863000000
C     2.855000000     4.941000000    -1.017000000
O     3.923000000     5.258000000    -1.780000000
C     4.909000000     4.346000000    -1.967000000
C     5.957000000     4.359000000    -1.076000000
H     6.005000000     5.148000000    -0.330000000
C     6.989000000     3.407000000    -1.238000000
H     7.898000000     3.497000000    -0.648000000
C     6.929000000     2.470000000    -2.280000000
H     7.769000000     1.794000000    -2.414000000
C     5.864000000     2.476000000    -3.147000000
C     4.806000000     3.333000000    -2.884000000
H     3.940000000     3.374000000    -3.540000000
C     0.007000000     2.080000000    -1.485000000
H     0.666000000     2.804000000    -1.957000000
C     0.520000000     1.068000000    -0.654000000
H     1.600000000     1.006000000    -0.543000000
C    -0.318000000     0.163000000     0.049000000
C     0.380000000    -0.834000000     0.951000000
H    -0.224000000    -1.051000000     1.835000000
H     0.658000000    -1.713000000     0.366000000
H     1.307000000    -0.391000000     1.321000000
C    -1.638000000     0.208000000    -0.117000000
H    -2.264000000    -0.546000000     0.353000000
C    -2.206000000     1.104000000    -1.072000000
H    -3.249000000     1.091000000    -1.375000000
C    -1.397000000     2.085000000    -1.742000000
C    -2.002000000     3.060000000    -2.711000000
O    -3.185000000     3.023000000    -3.076000000
O    -1.289000000     3.966000000    -3.083000000
O    -1.679000000     9.545000000    -2.644000000
H    -1.781000000     8.594000000    -2.677000000
H    -2.486000000     9.859000000    -2.237000000
O    -2.496000000     1.450000000    -5.760000000
H    -2.658000000     2.067000000    -5.047000000
H    -3.296000000     1.475000000    -6.285000000
O    -5.039000000     2.884000000    -7.047000000
H    -5.754000000     3.119000000    -7.639000000
H    -5.399000000     3.023000000    -6.171000000
O    -5.474000000     2.453000000    -4.059000000
H    -4.574000000     2.697000000    -3.846000000
H    -6.008000000     3.149000000    -3.677000000
O     1.780000000     1.672000000    -4.385000000
H     1.022000000     1.192000000    -4.052000000
H     2.177000000     1.081000000    -5.024000000
O    -4.793000000     7.557000000    -1.084000000
H    -5.409000000     7.468000000    -1.811000000
H    -4.152000000     6.860000000    -1.227000000
O    -0.450000000     7.684000000    -5.981000000
H    -0.682000000     7.953000000    -6.870000000
H     0.380000000     7.216000000    -6.082000000
O     0.216000000     4.594000000    -7.376000000
H    -0.574000000     4.603000000    -6.837000000
H     0.815000000     5.196000000    -6.934000000
O    -5.737000000     5.449000000    -5.357000000
H    -6.629000000     5.641000000    -5.068000000
H    -5.184000000     5.730000000    -4.629000000
O     1.313000000     4.378000000    -4.069000000
H     0.395000000     4.216000000    -3.853000000
H     1.696000000     3.505000000    -4.156000000
O     1.953000000     6.494000000    -5.727000000
H     2.372000000     7.198000000    -5.231000000
H     1.729000000     5.837000000    -5.067000000
O    -0.858000000     6.735000000    -3.483000000
H    -0.746000000     5.785000000    -3.526000000
H    -0.524000000     7.054000000    -4.321000000
O    -0.221000000    -0.025000000    -3.506000000
H    -0.457000000     0.334000000    -2.650000000
H    -1.000000000    -0.505000000    -3.788000000
O    -1.769000000     4.643000000    -5.528000000
H    -1.595000000     4.368000000    -4.627000000
H    -2.714000000     4.790000000    -5.555000000
O    -3.694000000     5.635000000    -3.138000000
H    -3.387000000     4.739000000    -3.000000000
H    -2.913000000     6.117000000    -3.409000000
O    -3.330000000     7.255000000    -5.667000000
H    -3.612000000     6.535000000    -6.231000000
H    -2.391000000     7.110000000    -5.546000000
O    -7.871000000     4.153000000    -2.953000000
H    -8.144000000     4.760000000    -3.640000000
H    -7.719000000     4.709000000    -2.188000000
O    -0.061000000     1.731000000    -7.503000000
H    -0.710000000     1.692000000    -6.801000000
H     0.118000000     2.665000000    -7.612000000
O    -6.753000000     0.548000000    -5.716000000
H    -6.176000000    -0.107000000    -6.109000000
H    -6.171000000     1.095000000    -5.188000000
