218
-1479.32721
C    -3.922000000    -2.661000000     2.215000000
H    -3.701000000    -1.955000000     3.011000000
C    -2.858000000    -3.440000000     1.787000000
C    -3.088000000    -4.340000000     0.753000000
H    -2.230000000    -4.922000000     0.425000000
C    -1.461000000    -3.145000000     2.342000000
O    -1.602000000    -2.830000000     3.736000000
H    -1.021000000    -2.260000000     1.860000000
O    -0.588000000    -4.309000000     2.203000000
C     0.694000000    -4.133000000     1.843000000
C     1.049000000    -4.210000000     0.519000000
H     0.268000000    -4.416000000    -0.209000000
C     2.309000000    -4.051000000     0.065000000
O     2.538000000    -4.146000000    -1.301000000
C     3.307000000    -3.654000000     0.991000000
C     4.685000000    -3.291000000     0.449000000
H     5.488000000    -3.396000000     1.182000000
C     4.601000000    -1.796000000     0.014000000
C     4.972000000    -0.775000000     0.910000000
H     5.402000000    -0.978000000     1.887000000
H     4.944000000    -3.850000000    -0.453000000
C     2.922000000    -3.415000000     2.357000000
H     3.575000000    -2.954000000     3.094000000
C     1.600000000    -3.728000000     2.808000000
C     1.252000000    -3.523000000     4.244000000
H     2.136000000    -3.747000000     4.844000000
H     0.495000000    -4.276000000     4.475000000
C     0.655000000    -2.128000000     4.467000000
C     1.403000000    -0.993000000     4.745000000
H     2.488000000    -1.028000000     4.698000000
C    -0.722000000    -1.868000000     4.229000000
C    -1.297000000    -0.616000000     4.383000000
H    -2.345000000    -0.550000000     4.103000000
C    -0.533000000     0.468000000     4.822000000
O    -1.108000000     1.675000000     4.537000000
C    -0.868000000     2.218000000     3.182000000
C    -2.115000000     2.722000000     2.543000000
C    -2.067000000     3.518000000     1.405000000
H    -1.149000000     3.773000000     0.882000000
C    -3.362000000     2.355000000     3.076000000
H    -3.483000000     1.715000000     3.946000000
O     0.127000000     3.259000000     3.232000000
H    -0.420000000     1.479000000     2.501000000
C     0.854000000     0.307000000     4.889000000
C     1.780000000     1.490000000     5.038000000
H     2.498000000     1.191000000     5.804000000
H     1.197000000     2.305000000     5.471000000
C     2.315000000     2.162000000     3.814000000
C     3.643000000     1.889000000     3.349000000
H     4.290000000     1.286000000     3.980000000
C     1.409000000     2.962000000     3.033000000
C     1.880000000     3.497000000     1.791000000
H     1.213000000     4.126000000     1.207000000
C     3.166000000     3.182000000     1.350000000
O     3.570000000     3.720000000     0.143000000
C     3.301000000     2.898000000    -1.024000000
C     2.755000000     3.742000000    -2.185000000
C     2.010000000     4.899000000    -1.895000000
H     1.806000000     5.173000000    -0.863000000
C     2.783000000     3.222000000    -3.462000000
H     3.293000000     2.276000000    -3.627000000
O     4.468000000     2.145000000    -1.263000000
H     2.601000000     2.127000000    -0.671000000
C     3.986000000     2.356000000     2.098000000
C     5.228000000     1.707000000     1.407000000
H     5.998000000     1.326000000     2.082000000
H     5.835000000     2.497000000     0.960000000
C     4.886000000     0.574000000     0.447000000
C     4.543000000     0.884000000    -0.919000000
C     4.196000000    -0.116000000    -1.719000000
H     4.017000000     0.171000000    -2.752000000
C     4.144000000    -1.426000000    -1.301000000
O     3.784000000    -2.355000000    -2.212000000
C     2.405000000    -2.849000000    -1.999000000
H     1.928000000    -2.082000000    -1.371000000
C     1.568000000    -2.904000000    -3.310000000
C     0.232000000    -3.350000000    -3.260000000
H    -0.165000000    -3.827000000    -2.367000000
C     2.014000000    -2.302000000    -4.522000000
H     3.009000000    -1.867000000    -4.480000000
C     1.139000000    -2.087000000    -5.607000000
O     1.559000000    -1.470000000    -6.694000000
C    -0.218000000    -2.459000000    -5.483000000
H    -0.921000000    -2.289000000    -6.294000000
C    -0.633000000    -3.066000000    -4.355000000
O    -2.026000000    -3.239000000    -4.269000000
C    -2.564000000    -4.416000000    -3.684000000
C    -3.406000000    -4.328000000    -2.545000000
H    -3.592000000    -3.340000000    -2.132000000
C    -2.410000000    -5.718000000    -4.247000000
H    -1.899000000    -5.877000000    -5.194000000
C    -3.046000000    -6.787000000    -3.683000000
H    -2.999000000    -7.718000000    -4.241000000
C    -3.791000000    -6.705000000    -2.534000000
H    -4.183000000    -7.652000000    -2.173000000
C    -3.915000000    -5.495000000    -1.925000000
O    -4.653000000    -5.412000000    -0.779000000
C    -4.366000000    -4.468000000     0.221000000
C    -5.435000000    -3.687000000     0.655000000
H    -6.396000000    -3.782000000     0.157000000
C    -5.207000000    -2.823000000     1.665000000
O    -6.208000000    -1.995000000     1.909000000
C    -6.299000000    -1.028000000     2.866000000
C    -6.003000000     0.285000000     2.550000000
H    -5.750000000     0.456000000     1.507000000
C    -6.612000000    -1.457000000     4.221000000
H    -6.791000000    -2.518000000     4.377000000
C    -6.775000000    -0.471000000     5.151000000
H    -7.045000000    -0.679000000     6.183000000
C    -6.538000000     0.842000000     4.751000000
H    -6.668000000     1.662000000     5.454000000
C    -6.113000000     1.247000000     3.488000000
O    -5.846000000     2.537000000     3.095000000
C    -4.593000000     2.920000000     2.612000000
C    -4.507000000     3.892000000     1.631000000
H    -5.462000000     4.245000000     1.249000000
C    -3.280000000     4.186000000     1.089000000
O    -3.339000000     5.052000000     0.070000000
C    -2.196000000     5.914000000    -0.144000000
C    -1.379000000     5.765000000    -1.300000000
H    -1.666000000     5.011000000    -2.028000000
C    -1.935000000     6.920000000     0.728000000
H    -2.500000000     7.040000000     1.649000000
C    -0.796000000     7.775000000     0.517000000
H    -0.611000000     8.568000000     1.237000000
C    -0.033000000     7.626000000    -0.641000000
H     0.857000000     8.230000000    -0.794000000
C    -0.393000000     6.659000000    -1.577000000
O     0.352000000     6.533000000    -2.704000000
C     1.320000000     5.548000000    -2.948000000
C     1.349000000     4.988000000    -4.230000000
H     0.695000000     5.385000000    -5.002000000
C     2.150000000     3.851000000    -4.517000000
O     2.140000000     3.332000000    -5.787000000
C     2.673000000     2.019000000    -6.141000000
C     4.055000000     1.891000000    -6.440000000
H     4.662000000     2.786000000    -6.333000000
C     4.570000000     0.648000000    -6.800000000
H     5.626000000     0.559000000    -7.040000000
C     3.677000000    -0.465000000    -6.848000000
H     4.003000000    -1.437000000    -7.210000000
C     2.302000000    -0.307000000    -6.666000000
C     1.780000000     0.938000000    -6.323000000
H     0.700000000     1.006000000    -6.220000000
C    -0.370000000     0.919000000    -2.211000000
H     0.015000000     1.301000000    -3.153000000
C     0.508000000     0.531000000    -1.205000000
H     1.557000000     0.392000000    -1.457000000
C     0.108000000     0.205000000     0.063000000
C     1.017000000    -0.306000000     1.146000000
H     1.575000000    -1.180000000     0.805000000
H     1.766000000     0.434000000     1.435000000
H     0.451000000    -0.727000000     1.979000000
C    -1.207000000     0.375000000     0.394000000
H    -1.652000000     0.061000000     1.334000000
C    -2.079000000     0.845000000    -0.565000000
H    -3.155000000     0.806000000    -0.416000000
C    -1.712000000     1.224000000    -1.863000000
C    -2.631000000     1.863000000    -2.837000000
O    -3.846000000     1.900000000    -2.613000000
O    -2.182000000     2.290000000    -3.911000000
O    -1.046000000     0.008000000    -8.250000000
H    -0.229000000    -0.489000000    -8.282000000
H    -1.192000000     0.168000000    -7.318000000
O    -3.308000000    -1.588000000    -8.441000000
H    -2.923000000    -2.413000000    -8.145000000
H    -2.557000000    -1.011000000    -8.583000000
O    -4.732000000     1.918000000    -8.025000000
H    -3.784000000     2.055000000    -8.037000000
H    -5.010000000     2.241000000    -7.168000000
O    -2.055000000     2.858000000    -8.005000000
H    -1.806000000     3.361000000    -7.230000000
H    -1.531000000     2.058000000    -7.950000000
O    -4.794000000    -0.555000000    -2.431000000
H    -4.258000000    -0.946000000    -3.121000000
H    -4.521000000     0.362000000    -2.406000000
O    -7.169000000     0.628000000    -3.566000000
H    -7.578000000    -0.210000000    -3.350000000
H    -6.229000000     0.461000000    -3.497000000
O    -4.547000000     2.935000000    -5.159000000
H    -4.066000000     2.595000000    -4.404000000
H    -3.890000000     3.412000000    -5.666000000
O    -4.100000000    -1.411000000    -5.164000000
H    -3.999000000    -1.094000000    -6.062000000
H    -4.498000000    -2.277000000    -5.259000000
O    -8.922000000     2.249000000     0.863000000
H    -8.044000000     2.191000000     0.488000000
H    -9.289000000     1.372000000     0.751000000
O    -1.611000000     4.343000000    -5.752000000
H    -1.601000000     3.817000000    -4.952000000
H    -1.755000000     5.239000000    -5.448000000
O    -1.902000000     6.952000000    -4.533000000
H    -1.043000000     7.115000000    -4.144000000
H    -2.302000000     7.819000000    -4.603000000
O    -1.843000000     0.347000000    -5.690000000
H    -2.579000000    -0.223000000    -5.465000000
H    -1.848000000     1.023000000    -5.012000000
O    -7.019000000     0.202000000    -7.498000000
H    -6.196000000     0.669000000    -7.646000000
H    -6.757000000    -0.709000000    -7.368000000
O    -6.646000000     1.635000000    -0.619000000
H    -6.655000000     0.684000000    -0.734000000
H    -5.865000000     1.925000000    -1.089000000
O    -4.674000000     4.594000000    -2.390000000
H    -4.416000000     4.194000000    -1.560000000
H    -4.978000000     3.861000000    -2.925000000
O    -5.689000000     6.773000000    -0.693000000
H    -6.512000000     6.464000000    -0.313000000
H    -5.369000000     6.031000000    -1.207000000
O    -7.057000000    -1.402000000    -0.918000000
H    -6.753000000    -1.662000000    -0.048000000
H    -6.255000000    -1.288000000    -1.428000000
O    -4.407000000     5.941000000    -4.814000000
H    -3.708000000     6.586000000    -4.709000000
H    -4.230000000     5.284000000    -4.141000000
O    -7.405000000     3.093000000    -4.509000000
H    -6.506000000     3.414000000    -4.577000000
H    -7.315000000     2.194000000    -4.193000000
