218
-1454.73472
C    -3.941000000    -1.978000000     3.254000000
H    -3.699000000    -1.427000000     4.160000000
C    -2.959000000    -2.663000000     2.567000000
C    -3.306000000    -3.280000000     1.370000000
H    -2.508000000    -3.727000000     0.782000000
C    -1.518000000    -2.665000000     3.097000000
O    -1.326000000    -2.171000000     4.383000000
H    -0.997000000    -1.904000000     2.498000000
O    -0.825000000    -3.929000000     2.994000000
C     0.401000000    -3.956000000     2.396000000
C     0.483000000    -4.319000000     1.028000000
H    -0.410000000    -4.614000000     0.482000000
C     1.670000000    -4.179000000     0.318000000
O     1.712000000    -4.510000000    -1.012000000
C     2.840000000    -3.723000000     1.000000000
C     4.120000000    -3.557000000     0.304000000
H     5.057000000    -3.733000000     0.835000000
C     4.158000000    -2.209000000    -0.388000000
C     4.795000000    -1.113000000     0.237000000
H     5.215000000    -1.310000000     1.220000000
H     4.206000000    -4.277000000    -0.513000000
C     2.774000000    -3.537000000     2.356000000
H     3.655000000    -3.030000000     2.741000000
C     1.560000000    -3.557000000     3.075000000
C     1.499000000    -2.972000000     4.465000000
H     2.491000000    -3.102000000     4.902000000
H     0.742000000    -3.583000000     4.961000000
C     1.029000000    -1.554000000     4.482000000
C     1.972000000    -0.489000000     4.639000000
H     3.045000000    -0.661000000     4.642000000
C    -0.312000000    -1.242000000     4.547000000
C    -0.770000000     0.094000000     4.480000000
H    -1.829000000     0.340000000     4.464000000
C     0.178000000     1.113000000     4.497000000
O    -0.281000000     2.422000000     4.440000000
C    -0.144000000     2.922000000     3.128000000
C    -1.423000000     3.464000000     2.553000000
C    -1.370000000     4.146000000     1.320000000
H    -0.458000000     4.196000000     0.730000000
C    -2.610000000     3.259000000     3.226000000
H    -2.673000000     2.714000000     4.165000000
O     0.949000000     3.849000000     3.005000000
H     0.101000000     2.143000000     2.391000000
C     1.533000000     0.820000000     4.626000000
C     2.549000000     1.910000000     4.651000000
H     3.494000000     1.641000000     5.127000000
H     2.206000000     2.745000000     5.267000000
C     2.866000000     2.292000000     3.228000000
C     3.946000000     1.709000000     2.590000000
H     4.416000000     0.821000000     3.004000000
C     2.048000000     3.245000000     2.480000000
C     2.313000000     3.541000000     1.144000000
H     1.684000000     4.212000000     0.564000000
C     3.508000000     3.012000000     0.557000000
O     3.720000000     3.377000000    -0.723000000
C     3.162000000     2.431000000    -1.732000000
C     2.445000000     3.136000000    -2.897000000
C     1.850000000     4.320000000    -2.821000000
H     2.003000000     4.822000000    -1.869000000
C     2.441000000     2.474000000    -4.120000000
H     2.897000000     1.492000000    -4.219000000
O     4.113000000     1.540000000    -2.269000000
H     2.426000000     1.815000000    -1.195000000
C     4.213000000     2.024000000     1.223000000
C     5.380000000     1.287000000     0.576000000
H     5.951000000     0.781000000     1.358000000
H     6.017000000     1.983000000     0.025000000
C     4.722000000     0.166000000    -0.304000000
C     4.156000000     0.343000000    -1.607000000
C     3.644000000    -0.783000000    -2.319000000
H     3.281000000    -0.735000000    -3.343000000
C     3.616000000    -1.991000000    -1.621000000
O     2.956000000    -3.046000000    -2.294000000
C     1.584000000    -3.426000000    -1.905000000
H     1.018000000    -2.623000000    -1.411000000
C     0.825000000    -3.667000000    -3.150000000
C    -0.445000000    -4.308000000    -3.168000000
H    -0.789000000    -4.756000000    -2.239000000
C     1.181000000    -3.017000000    -4.347000000
H     2.175000000    -2.579000000    -4.325000000
C     0.408000000    -3.133000000    -5.521000000
O     0.697000000    -2.444000000    -6.683000000
C    -0.780000000    -3.812000000    -5.515000000
H    -1.450000000    -3.765000000    -6.370000000
C    -1.232000000    -4.404000000    -4.268000000
O    -2.406000000    -5.063000000    -4.145000000
C    -3.113000000    -5.419000000    -2.962000000
C    -3.757000000    -4.433000000    -2.214000000
H    -3.714000000    -3.415000000    -2.594000000
C    -3.079000000    -6.725000000    -2.469000000
H    -2.567000000    -7.494000000    -3.041000000
C    -3.683000000    -7.049000000    -1.255000000
H    -3.772000000    -8.087000000    -0.946000000
C    -4.339000000    -6.085000000    -0.496000000
H    -4.816000000    -6.322000000     0.451000000
C    -4.358000000    -4.787000000    -1.053000000
O    -4.960000000    -3.840000000    -0.307000000
C    -4.585000000    -3.343000000     0.943000000
C    -5.554000000    -2.576000000     1.590000000
H    -6.523000000    -2.336000000     1.158000000
C    -5.209000000    -1.898000000     2.757000000
O    -6.240000000    -1.250000000     3.465000000
C    -6.045000000    -0.076000000     4.101000000
C    -5.473000000     1.026000000     3.349000000
H    -5.203000000     0.785000000     2.324000000
C    -6.501000000     0.124000000     5.392000000
H    -6.967000000    -0.734000000     5.868000000
C    -6.303000000     1.338000000     6.042000000
H    -6.599000000     1.370000000     7.087000000
C    -5.807000000     2.418000000     5.340000000
H    -5.783000000     3.400000000     5.804000000
C    -5.449000000     2.302000000     3.992000000
O    -4.973000000     3.388000000     3.245000000
C    -3.806000000     3.586000000     2.588000000
C    -3.730000000     4.307000000     1.382000000
H    -4.622000000     4.740000000     0.935000000
C    -2.526000000     4.663000000     0.769000000
O    -2.567000000     5.336000000    -0.389000000
C    -1.600000000     6.154000000    -0.868000000
C    -0.987000000     5.740000000    -2.110000000
H    -1.379000000     4.882000000    -2.651000000
C    -0.932000000     7.107000000    -0.115000000
H    -1.227000000     7.328000000     0.908000000
C     0.135000000     7.846000000    -0.592000000
H     0.638000000     8.545000000     0.071000000
C     0.632000000     7.524000000    -1.891000000
H     1.575000000     7.993000000    -2.159000000
C     0.001000000     6.551000000    -2.652000000
O     0.596000000     6.149000000    -3.805000000
C     1.206000000     4.921000000    -3.941000000
C     1.121000000     4.239000000    -5.097000000
H     0.558000000     4.714000000    -5.896000000
C     1.741000000     2.980000000    -5.227000000
O     1.603000000     2.259000000    -6.400000000
C     2.040000000     0.948000000    -6.614000000
C     3.359000000     0.733000000    -7.030000000
H     3.980000000     1.610000000    -7.191000000
C     3.812000000    -0.571000000    -7.148000000
H     4.854000000    -0.677000000    -7.439000000
C     2.962000000    -1.671000000    -7.048000000
H     3.308000000    -2.700000000    -7.106000000
C     1.644000000    -1.424000000    -6.673000000
C     1.172000000    -0.157000000    -6.412000000
H     0.157000000    -0.028000000    -6.044000000
C    -0.842000000     0.280000000    -2.513000000
H    -0.829000000    -0.018000000    -3.558000000
C     0.075000000    -0.066000000    -1.589000000
H     1.026000000    -0.466000000    -1.934000000
C    -0.119000000     0.182000000    -0.222000000
C     1.003000000    -0.247000000     0.747000000
H     1.925000000    -0.330000000     0.168000000
H     1.138000000     0.559000000     1.472000000
H     0.739000000    -1.219000000     1.169000000
C    -1.301000000     0.770000000     0.223000000
H    -1.598000000     1.108000000     1.213000000
C    -2.262000000     1.094000000    -0.761000000
H    -3.179000000     1.606000000    -0.480000000
C    -1.995000000     0.957000000    -2.144000000
C    -2.996000000     1.499000000    -3.130000000
O    -3.910000000     2.205000000    -2.754000000
O    -2.984000000     1.116000000    -4.283000000
O    -3.903000000     1.719000000    -8.181000000
H    -3.066000000     2.183000000    -8.177000000
H    -4.234000000     1.814000000    -7.289000000
O    -7.971000000    -1.734000000    -3.485000000
H    -7.253000000    -1.106000000    -3.567000000
H    -8.265000000    -1.882000000    -4.383000000
O    -1.419000000    -0.570000000    -8.870000000
H    -1.726000000     0.213000000    -9.327000000
H    -1.703000000    -0.446000000    -7.964000000
O    -4.457000000     6.934000000    -2.628000000
H    -5.256000000     7.291000000    -2.240000000
H    -3.748000000     7.320000000    -2.114000000
O    -5.312000000    -0.348000000    -5.134000000
H    -5.026000000    -1.255000000    -5.242000000
H    -4.628000000     0.058000000    -4.602000000
O    -9.525000000     2.006000000    -1.718000000
H    -9.332000000     2.942000000    -1.773000000
H    -8.747000000     1.625000000    -1.310000000
O    -4.019000000    -2.957000000    -5.319000000
H    -4.632000000    -3.313000000    -5.962000000
H    -3.403000000    -3.671000000    -5.154000000
O    -4.405000000     2.864000000    -5.775000000
H    -4.185000000     2.005000000    -5.417000000
H    -4.248000000     3.472000000    -5.053000000
O    -4.614000000     7.507000000    -5.345000000
H    -4.238000000     7.316000000    -4.486000000
H    -4.125000000     8.269000000    -5.656000000
O    -2.542000000    -0.366000000    -6.472000000
H    -3.281000000    -0.972000000    -6.403000000
H    -2.497000000     0.055000000    -5.613000000
O    -5.697000000    -1.139000000    -1.309000000
H    -4.920000000    -0.676000000    -1.623000000
H    -5.426000000    -2.056000000    -1.261000000
O    -3.844000000     4.619000000    -3.922000000
H    -3.845000000     3.856000000    -3.344000000
H    -4.056000000     5.355000000    -3.348000000
O    -7.011000000     5.309000000    -2.891000000
H    -7.183000000     6.121000000    -2.414000000
H    -6.334000000     4.869000000    -2.377000000
O    -1.810000000     5.580000000    -5.645000000
H    -1.269000000     5.969000000    -4.957000000
H    -2.574000000     5.235000000    -5.183000000
O    -8.086000000     4.254000000    -0.070000000
H    -7.473000000     3.887000000    -0.707000000
H    -7.651000000     5.044000000     0.253000000
O    -5.779000000     3.176000000    -1.352000000
H    -6.204000000     2.387000000    -1.014000000
H    -5.130000000     2.850000000    -1.975000000
O    -7.357000000     0.917000000    -0.743000000
H    -6.797000000     0.226000000    -1.095000000
H    -7.938000000     0.466000000    -0.130000000
O    -4.436000000     4.945000000    -7.886000000
H    -3.519000000     5.217000000    -7.916000000
H    -4.440000000     4.179000000    -7.312000000
O    -7.486000000     1.563000000    -5.599000000
H    -6.929000000     0.798000000    -5.746000000
H    -6.888000000     2.308000000    -5.655000000
