218
-1465.81151
C    -3.880000000    -1.711000000     3.176000000
H    -3.404000000    -1.055000000     3.901000000
C    -3.163000000    -2.718000000     2.640000000
C    -3.710000000    -3.580000000     1.677000000
H    -3.119000000    -4.367000000     1.216000000
C    -1.651000000    -2.869000000     2.885000000
O    -1.243000000    -2.424000000     4.193000000
H    -1.088000000    -2.212000000     2.206000000
O    -1.143000000    -4.190000000     2.538000000
C     0.064000000    -4.279000000     1.927000000
C     0.026000000    -4.543000000     0.591000000
H    -0.926000000    -4.761000000     0.114000000
C     1.168000000    -4.417000000    -0.261000000
O     0.934000000    -4.511000000    -1.633000000
C     2.413000000    -4.156000000     0.333000000
C     3.702000000    -4.056000000    -0.492000000
H     4.593000000    -4.245000000     0.110000000
C     3.801000000    -2.678000000    -1.177000000
C     4.569000000    -1.719000000    -0.566000000
H     5.145000000    -1.997000000     0.313000000
H     3.769000000    -4.800000000    -1.289000000
C     2.382000000    -3.813000000     1.688000000
H     3.286000000    -3.353000000     2.078000000
C     1.273000000    -3.941000000     2.523000000
C     1.351000000    -3.536000000     3.990000000
H     2.271000000    -3.829000000     4.500000000
H     0.638000000    -4.082000000     4.611000000
C     1.143000000    -2.104000000     4.198000000
C     2.255000000    -1.275000000     4.279000000
H     3.211000000    -1.786000000     4.353000000
C    -0.146000000    -1.589000000     4.296000000
C    -0.273000000    -0.200000000     4.450000000
H    -1.237000000     0.286000000     4.324000000
C     0.790000000     0.671000000     4.410000000
O     0.508000000     2.048000000     4.461000000
C     0.677000000     2.733000000     3.239000000
C    -0.494000000     3.657000000     3.143000000
C    -0.408000000     4.767000000     2.231000000
H     0.597000000     4.944000000     1.857000000
C    -1.743000000     3.235000000     3.587000000
H    -1.882000000     2.335000000     4.180000000
O     1.968000000     3.395000000     3.329000000
H     0.773000000     1.985000000     2.438000000
C     2.117000000     0.110000000     4.418000000
C     3.264000000     1.065000000     4.310000000
H     4.146000000     0.616000000     4.772000000
H     3.086000000     1.902000000     4.988000000
C     3.558000000     1.640000000     2.970000000
C     4.325000000     0.887000000     2.073000000
H     4.818000000    -0.028000000     2.392000000
C     2.944000000     2.807000000     2.560000000
C     3.147000000     3.277000000     1.248000000
H     2.710000000     4.176000000     0.821000000
C     3.865000000     2.503000000     0.323000000
O     3.908000000     2.912000000    -0.962000000
C     3.196000000     2.150000000    -1.967000000
C     2.251000000     3.023000000    -2.849000000
C     1.646000000     4.258000000    -2.424000000
H     1.852000000     4.577000000    -1.406000000
C     2.231000000     2.665000000    -4.211000000
H     2.525000000     1.704000000    -4.626000000
O     3.966000000     1.184000000    -2.738000000
H     2.503000000     1.448000000    -1.481000000
C     4.460000000     1.319000000     0.736000000
C     5.387000000     0.617000000    -0.201000000
H     6.217000000     0.128000000     0.313000000
H     5.855000000     1.336000000    -0.877000000
C     4.729000000    -0.464000000    -1.053000000
C     4.022000000    -0.118000000    -2.234000000
C     3.312000000    -1.099000000    -2.926000000
H     2.911000000    -0.818000000    -3.896000000
C     3.148000000    -2.327000000    -2.346000000
O     2.314000000    -3.278000000    -2.928000000
C     1.034000000    -3.334000000    -2.383000000
H     0.894000000    -2.483000000    -1.700000000
C    -0.029000000    -3.470000000    -3.449000000
C    -1.271000000    -4.023000000    -3.217000000
H    -1.391000000    -4.537000000    -2.268000000
C     0.138000000    -2.760000000    -4.626000000
H     1.086000000    -2.243000000    -4.751000000
C    -0.878000000    -2.603000000    -5.561000000
O    -0.781000000    -1.761000000    -6.702000000
C    -2.093000000    -3.244000000    -5.347000000
H    -2.895000000    -2.986000000    -6.033000000
C    -2.239000000    -4.011000000    -4.195000000
O    -3.531000000    -4.614000000    -4.035000000
C    -3.975000000    -5.163000000    -2.800000000
C    -4.516000000    -4.408000000    -1.742000000
H    -4.550000000    -3.334000000    -1.904000000
C    -3.878000000    -6.556000000    -2.537000000
H    -3.324000000    -7.230000000    -3.184000000
C    -4.432000000    -7.135000000    -1.361000000
H    -4.387000000    -8.216000000    -1.253000000
C    -4.875000000    -6.300000000    -0.311000000
H    -5.293000000    -6.756000000     0.582000000
C    -4.962000000    -4.936000000    -0.514000000
O    -5.628000000    -4.199000000     0.429000000
C    -5.036000000    -3.309000000     1.273000000
C    -5.772000000    -2.236000000     1.763000000
H    -6.752000000    -2.001000000     1.355000000
C    -5.172000000    -1.399000000     2.677000000
O    -5.945000000    -0.337000000     3.220000000
C    -5.396000000     0.540000000     4.179000000
C    -4.899000000     1.788000000     3.758000000
H    -5.023000000     2.126000000     2.732000000
C    -5.244000000     0.204000000     5.505000000
H    -5.383000000    -0.785000000     5.936000000
C    -4.779000000     1.145000000     6.433000000
H    -4.771000000     0.850000000     7.479000000
C    -4.276000000     2.422000000     6.009000000
H    -3.783000000     3.149000000     6.649000000
C    -4.413000000     2.763000000     4.662000000
O    -3.966000000     3.973000000     4.214000000
C    -2.786000000     4.135000000     3.520000000
C    -2.627000000     5.382000000     2.824000000
H    -3.462000000     6.076000000     2.869000000
C    -1.456000000     5.688000000     2.071000000
O    -1.408000000     6.778000000     1.360000000
C    -0.446000000     7.044000000     0.468000000
C    -0.601000000     6.597000000    -0.828000000
H    -1.421000000     5.939000000    -1.106000000
C     0.657000000     7.770000000     0.832000000
H     0.766000000     8.310000000     1.768000000
C     1.662000000     7.982000000    -0.095000000
H     2.454000000     8.678000000     0.167000000
C     1.587000000     7.392000000    -1.339000000
H     2.361000000     7.622000000    -2.066000000
C     0.393000000     6.825000000    -1.758000000
O     0.317000000     6.213000000    -3.002000000
C     0.939000000     5.026000000    -3.351000000
C     0.864000000     4.610000000    -4.661000000
H     0.185000000     5.189000000    -5.280000000
C     1.416000000     3.357000000    -5.089000000
O     0.889000000     2.846000000    -6.283000000
C     1.029000000     1.476000000    -6.700000000
C     2.179000000     1.088000000    -7.515000000
H     2.966000000     1.794000000    -7.771000000
C     2.335000000    -0.226000000    -7.938000000
H     3.140000000    -0.501000000    -8.615000000
C     1.379000000    -1.210000000    -7.632000000
H     1.467000000    -2.267000000    -7.873000000
C     0.263000000    -0.823000000    -6.854000000
C     0.041000000     0.514000000    -6.487000000
H    -0.930000000     0.713000000    -6.040000000
C    -0.853000000     1.174000000    -2.469000000
H    -0.692000000     1.254000000    -3.541000000
C     0.010000000     0.365000000    -1.788000000
H     0.627000000    -0.336000000    -2.345000000
C     0.006000000     0.399000000    -0.394000000
C     1.008000000    -0.365000000     0.491000000
H     0.457000000    -1.206000000     0.917000000
H     1.687000000    -0.905000000    -0.172000000
H     1.620000000     0.173000000     1.218000000
C    -0.901000000     1.252000000     0.263000000
H    -0.888000000     1.295000000     1.349000000
C    -1.839000000     1.964000000    -0.388000000
H    -2.466000000     2.657000000     0.167000000
C    -1.823000000     2.013000000    -1.810000000
C    -2.820000000     2.857000000    -2.605000000
O    -3.419000000     3.795000000    -2.083000000
O    -2.977000000     2.473000000    -3.752000000
O    -7.657000000     4.029000000    -3.767000000
H    -7.183000000     4.123000000    -2.941000000
H    -7.047000000     3.567000000    -4.342000000
O    -3.651000000     8.449000000    -2.073000000
H    -3.153000000     8.522000000    -2.887000000
H    -3.972000000     7.547000000    -2.069000000
O    -4.925000000     5.743000000    -1.408000000
H    -4.410000000     4.943000000    -1.517000000
H    -5.329000000     5.653000000    -0.546000000
O    -4.625000000     2.729000000    -7.488000000
H    -3.789000000     2.601000000    -7.040000000
H    -4.885000000     1.850000000    -7.766000000
O    -5.685000000     0.093000000    -0.843000000
H    -5.758000000     0.213000000    -1.790000000
H    -4.855000000    -0.367000000    -0.723000000
O    -3.291000000    -1.000000000    -1.391000000
H    -2.551000000    -0.408000000    -1.257000000
H    -3.138000000    -1.383000000    -2.255000000
O    -7.643000000     3.262000000     0.661000000
H    -7.905000000     2.627000000     1.328000000
H    -6.820000000     2.918000000     0.314000000
O    -6.297000000    -1.994000000    -4.996000000
H    -6.904000000    -2.357000000    -4.351000000
H    -5.620000000    -1.565000000    -4.473000000
O    -5.001000000     0.164000000    -3.510000000
H    -5.502000000     0.743000000    -4.085000000
H    -4.094000000     0.451000000    -3.614000000
O    -6.577000000     7.183000000    -2.999000000
H    -5.897000000     6.878000000    -2.399000000
H    -6.700000000     6.458000000    -3.611000000
O    -5.221000000     2.498000000    -0.366000000
H    -5.220000000     1.547000000    -0.263000000
H    -4.493000000     2.675000000    -0.962000000
O    -3.531000000     5.536000000    -7.073000000
H    -3.184000000     5.669000000    -6.190000000
H    -3.460000000     4.592000000    -7.218000000
O    -6.441000000     5.822000000    -6.139000000
H    -7.028000000     5.302000000    -6.689000000
H    -5.588000000     5.399000000    -6.234000000
O    -3.063000000     8.062000000    -4.748000000
H    -2.318000000     8.444000000    -5.213000000
H    -2.818000000     7.146000000    -4.616000000
O    -2.158000000     5.321000000    -4.396000000
H    -1.591000000     5.478000000    -3.641000000
H    -2.559000000     4.470000000    -4.221000000
O    -2.229000000     2.950000000    -6.200000000
H    -1.328000000     3.267000000    -6.256000000
H    -2.333000000     2.684000000    -5.286000000
O    -5.795000000     5.136000000     1.431000000
H    -5.242000000     4.385000000     1.216000000
H    -6.688000000     4.826000000     1.281000000
O    -5.684000000     2.755000000    -4.987000000
H    -4.783000000     2.938000000    -4.721000000
H    -5.641000000     2.676000000    -5.940000000
O    -8.402000000    -0.174000000    -2.661000000
H    -8.382000000    -1.110000000    -2.860000000
H    -7.698000000    -0.048000000    -2.025000000
