218
-1470.49557
C    -4.304000000    -1.058000000     3.171000000
H    -3.856000000    -0.578000000     4.037000000
C    -3.607000000    -2.075000000     2.503000000
C    -4.229000000    -2.710000000     1.467000000
H    -3.645000000    -3.419000000     0.886000000
C    -2.200000000    -2.511000000     2.846000000
O    -1.853000000    -2.097000000     4.282000000
H    -1.583000000    -1.934000000     2.142000000
O    -1.964000000    -3.929000000     2.483000000
C    -0.756000000    -4.169000000     1.925000000
C    -0.746000000    -4.349000000     0.518000000
H    -1.717000000    -4.333000000     0.029000000
C     0.425000000    -4.497000000    -0.209000000
O     0.463000000    -4.642000000    -1.582000000
C     1.637000000    -4.441000000     0.534000000
C     2.945000000    -4.577000000    -0.202000000
H     3.669000000    -5.023000000     0.484000000
C     3.381000000    -3.282000000    -0.863000000
C     4.152000000    -2.454000000    -0.063000000
H     4.259000000    -2.660000000     0.999000000
H     2.888000000    -5.365000000    -0.956000000
C     1.636000000    -4.273000000     1.950000000
H     2.603000000    -4.180000000     2.438000000
C     0.455000000    -4.064000000     2.659000000
C     0.490000000    -3.690000000     4.182000000
H     1.387000000    -4.043000000     4.695000000
H    -0.368000000    -4.189000000     4.637000000
C     0.564000000    -2.172000000     4.363000000
C     1.757000000    -1.534000000     4.374000000
H     2.708000000    -2.060000000     4.369000000
C    -0.658000000    -1.471000000     4.466000000
C    -0.626000000    -0.092000000     4.511000000
H    -1.606000000     0.373000000     4.578000000
C     0.547000000     0.581000000     4.396000000
O     0.511000000     1.963000000     4.304000000
C     0.863000000     2.649000000     3.095000000
C    -0.050000000     3.836000000     2.836000000
C     0.364000000     4.993000000     2.263000000
H     1.412000000     5.255000000     2.148000000
C    -1.442000000     3.693000000     3.053000000
H    -1.818000000     2.774000000     3.497000000
O     2.233000000     3.071000000     3.177000000
H     0.758000000     1.948000000     2.254000000
C     1.768000000    -0.106000000     4.485000000
C     3.111000000     0.674000000     4.469000000
H     3.904000000     0.085000000     4.935000000
H     3.048000000     1.539000000     5.134000000
C     3.600000000     1.017000000     3.060000000
C     4.427000000     0.197000000     2.304000000
H     4.798000000    -0.700000000     2.792000000
C     3.195000000     2.283000000     2.583000000
C     3.609000000     2.678000000     1.307000000
H     3.260000000     3.626000000     0.905000000
C     4.371000000     1.802000000     0.547000000
O     4.578000000     2.172000000    -0.783000000
C     3.793000000     1.505000000    -1.844000000
C     3.256000000     2.387000000    -2.946000000
C     2.690000000     3.607000000    -2.517000000
H     2.936000000     3.985000000    -1.528000000
C     3.134000000     1.997000000    -4.301000000
H     3.547000000     1.012000000    -4.504000000
O     4.545000000     0.401000000    -2.395000000
H     2.906000000     1.138000000    -1.305000000
C     4.810000000     0.596000000     1.038000000
C     5.613000000    -0.384000000     0.225000000
H     6.276000000    -1.047000000     0.784000000
H     6.289000000     0.257000000    -0.345000000
C     4.674000000    -1.297000000    -0.643000000
C     4.240000000    -0.885000000    -1.896000000
C     3.349000000    -1.664000000    -2.637000000
H     2.872000000    -1.404000000    -3.579000000
C     2.945000000    -2.865000000    -2.097000000
O     1.960000000    -3.435000000    -2.915000000
C     0.644000000    -3.456000000    -2.422000000
H     0.627000000    -2.579000000    -1.759000000
C    -0.499000000    -3.189000000    -3.402000000
C    -1.686000000    -3.842000000    -3.186000000
H    -1.876000000    -4.495000000    -2.338000000
C    -0.403000000    -2.194000000    -4.352000000
H     0.583000000    -1.745000000    -4.436000000
C    -1.423000000    -2.039000000    -5.294000000
O    -1.314000000    -1.122000000    -6.341000000
C    -2.625000000    -2.629000000    -5.079000000
H    -3.433000000    -2.372000000    -5.759000000
C    -2.808000000    -3.535000000    -3.994000000
O    -4.052000000    -4.151000000    -3.899000000
C    -4.527000000    -4.568000000    -2.668000000
C    -5.064000000    -3.686000000    -1.771000000
H    -5.263000000    -2.651000000    -2.039000000
C    -4.594000000    -5.910000000    -2.369000000
H    -4.142000000    -6.626000000    -3.051000000
C    -5.225000000    -6.309000000    -1.185000000
H    -5.178000000    -7.358000000    -0.904000000
C    -5.766000000    -5.338000000    -0.299000000
H    -6.273000000    -5.678000000     0.600000000
C    -5.714000000    -3.987000000    -0.639000000
O    -6.217000000    -3.045000000     0.188000000
C    -5.536000000    -2.394000000     1.164000000
C    -6.259000000    -1.390000000     1.834000000
H    -7.215000000    -1.029000000     1.463000000
C    -5.626000000    -0.720000000     2.915000000
O    -6.243000000     0.301000000     3.556000000
C    -5.487000000     1.367000000     4.100000000
C    -5.087000000     2.394000000     3.282000000
H    -5.356000000     2.347000000     2.230000000
C    -5.121000000     1.315000000     5.461000000
H    -5.455000000     0.524000000     6.127000000
C    -4.325000000     2.356000000     5.950000000
H    -3.881000000     2.327000000     6.942000000
C    -3.960000000     3.416000000     5.079000000
H    -3.365000000     4.239000000     5.466000000
C    -4.295000000     3.423000000     3.746000000
O    -3.858000000     4.403000000     2.869000000
C    -2.440000000     4.569000000     2.582000000
C    -1.938000000     5.752000000     1.897000000
H    -2.674000000     6.489000000     1.586000000
C    -0.523000000     5.945000000     1.779000000
O    -0.037000000     7.085000000     1.174000000
C     0.908000000     7.029000000     0.212000000
C     0.809000000     6.231000000    -0.897000000
H    -0.081000000     5.610000000    -0.947000000
C     2.098000000     7.793000000     0.438000000
H     2.220000000     8.394000000     1.336000000
C     3.071000000     7.836000000    -0.565000000
H     4.014000000     8.319000000    -0.323000000
C     2.906000000     7.141000000    -1.785000000
H     3.644000000     7.306000000    -2.566000000
C     1.760000000     6.342000000    -1.948000000
O     1.515000000     5.755000000    -3.127000000
C     2.041000000     4.470000000    -3.475000000
C     1.946000000     4.059000000    -4.784000000
H     1.436000000     4.639000000    -5.549000000
C     2.305000000     2.772000000    -5.119000000
O     2.087000000     2.295000000    -6.362000000
C     1.699000000     0.989000000    -6.549000000
C     2.524000000     0.123000000    -7.256000000
H     3.562000000     0.420000000    -7.383000000
C     2.072000000    -1.227000000    -7.565000000
H     2.827000000    -1.931000000    -7.905000000
C     0.737000000    -1.615000000    -7.352000000
H     0.467000000    -2.667000000    -7.396000000
C    -0.099000000    -0.666000000    -6.673000000
C     0.329000000     0.600000000    -6.322000000
H    -0.437000000     1.280000000    -5.959000000
C    -0.446000000     1.486000000    -2.189000000
H    -0.285000000     1.619000000    -3.256000000
C     0.202000000     0.444000000    -1.562000000
H     0.837000000    -0.289000000    -2.051000000
C    -0.038000000     0.282000000    -0.198000000
C     0.678000000    -0.801000000     0.564000000
H     0.823000000    -0.369000000     1.556000000
H     0.118000000    -1.735000000     0.644000000
H     1.667000000    -1.009000000     0.152000000
C    -0.828000000     1.133000000     0.497000000
H    -0.960000000     0.870000000     1.543000000
C    -1.487000000     2.233000000    -0.141000000
H    -2.178000000     2.851000000     0.427000000
C    -1.263000000     2.450000000    -1.532000000
C    -1.948000000     3.556000000    -2.207000000
O    -2.518000000     4.491000000    -1.608000000
O    -2.135000000     3.429000000    -3.420000000
O    -0.332000000     2.921000000    -8.740000000
H    -0.021000000     3.102000000    -7.853000000
H    -0.935000000     3.639000000    -8.934000000
O    -7.277000000     5.185000000    -3.084000000
H    -7.638000000     4.880000000    -3.916000000
H    -6.470000000     4.682000000    -2.974000000
O    -1.858000000     8.424000000    -1.104000000
H    -1.458000000     9.214000000    -0.740000000
H    -1.420000000     7.703000000    -0.651000000
O    -0.879000000     6.081000000    -6.430000000
H    -1.585000000     6.727000000    -6.399000000
H    -1.328000000     5.236000000    -6.409000000
O    -4.817000000     5.633000000     0.085000000
H    -4.133000000     5.364000000    -0.528000000
H    -5.081000000     4.823000000     0.521000000
O    -8.261000000     2.467000000    -4.053000000
H    -7.568000000     2.362000000    -3.401000000
H    -8.019000000     1.867000000    -4.759000000
O    -2.884000000    -0.811000000    -0.763000000
H    -2.023000000    -0.852000000    -0.346000000
H    -2.844000000    -0.032000000    -1.318000000
O    -5.314000000     0.010000000    -2.009000000
H    -4.698000000     0.348000000    -2.658000000
H    -4.766000000    -0.453000000    -1.376000000
O    -3.300000000     0.907000000    -3.599000000
H    -2.720000000     1.646000000    -3.411000000
H    -3.314000000     0.850000000    -4.554000000
O    -2.293000000     6.591000000    -3.367000000
H    -2.139000000     6.983000000    -2.508000000
H    -2.523000000     5.681000000    -3.178000000
O    -5.131000000     3.595000000    -3.370000000
H    -4.193000000     3.778000000    -3.315000000
H    -5.229000000     3.090000000    -4.177000000
O    -4.595000000     6.584000000    -5.170000000
H    -4.446000000     6.814000000    -4.252000000
H    -3.716000000     6.485000000    -5.537000000
O    -6.530000000     4.882000000    -5.964000000
H    -5.804000000     5.407000000    -5.628000000
H    -6.552000000     4.112000000    -5.394000000
O    -0.218000000     7.967000000    -3.941000000
H    -1.096000000     7.586000000    -3.919000000
H     0.361000000     7.248000000    -3.687000000
O    -2.312000000     3.693000000    -6.079000000
H    -2.782000000     2.933000000    -6.421000000
H    -2.414000000     3.631000000    -5.129000000
O    -3.107000000     1.049000000    -6.272000000
H    -3.848000000     1.013000000    -6.877000000
H    -2.524000000     0.348000000    -6.566000000
O    -5.974000000     0.858000000    -4.944000000
H    -5.566000000     0.564000000    -5.759000000
H    -5.837000000     0.134000000    -4.333000000
O    -6.309000000     2.444000000    -0.705000000
H    -6.142000000     1.603000000    -1.131000000
H    -5.866000000     3.085000000    -1.260000000
O    -5.720000000     8.043000000    -0.437000000
H    -5.130000000     7.289000000    -0.455000000
H    -6.526000000     7.726000000    -0.844000000
