218
-1490.07353
C    -3.811000000    -2.218000000    -2.791000000
H    -3.471000000    -1.719000000    -3.695000000
C    -4.138000000    -1.492000000    -1.640000000
C    -4.686000000    -2.194000000    -0.527000000
H    -4.902000000    -1.553000000     0.325000000
C    -3.828000000     0.020000000    -1.463000000
O    -3.926000000     0.611000000    -2.808000000
H    -2.792000000     0.154000000    -1.118000000
O    -4.778000000     0.721000000    -0.519000000
C    -4.297000000     1.673000000     0.360000000
C    -4.129000000     1.368000000     1.703000000
H    -4.358000000     0.359000000     2.037000000
C    -3.308000000     2.167000000     2.510000000
O    -3.047000000     1.628000000     3.809000000
C    -2.860000000     3.445000000     2.074000000
C    -2.079000000     4.436000000     2.926000000
H    -2.414000000     5.408000000     2.559000000
C    -0.623000000     4.079000000     2.909000000
C     0.258000000     4.685000000     1.987000000
H    -0.100000000     5.455000000     1.308000000
H    -2.429000000     4.374000000     3.959000000
C    -3.267000000     3.803000000     0.750000000
H    -2.946000000     4.750000000     0.324000000
C    -3.872000000     2.938000000    -0.136000000
C    -4.147000000     3.305000000    -1.600000000
H    -4.215000000     4.392000000    -1.672000000
H    -5.097000000     2.927000000    -1.984000000
C    -2.992000000     2.842000000    -2.516000000
C    -1.893000000     3.629000000    -2.788000000
H    -1.918000000     4.636000000    -2.380000000
C    -3.023000000     1.584000000    -3.072000000
C    -1.986000000     1.120000000    -3.826000000
H    -2.029000000     0.082000000    -4.146000000
C    -0.917000000     1.921000000    -4.189000000
O     0.054000000     1.281000000    -4.908000000
C     1.164000000     0.792000000    -4.190000000
C     1.666000000    -0.550000000    -4.702000000
C     2.921000000    -1.028000000    -4.227000000
H     3.555000000    -0.355000000    -3.655000000
C     0.844000000    -1.413000000    -5.405000000
H    -0.139000000    -1.024000000    -5.657000000
O     2.184000000     1.901000000    -4.163000000
H     0.938000000     0.619000000    -3.127000000
C    -0.824000000     3.190000000    -3.667000000
C     0.353000000     4.097000000    -3.839000000
H     0.040000000     5.143000000    -3.847000000
H     0.754000000     3.876000000    -4.830000000
C     1.470000000     3.774000000    -2.803000000
C     1.440000000     4.313000000    -1.488000000
H     0.619000000     5.017000000    -1.382000000
C     2.317000000     2.672000000    -3.008000000
C     3.190000000     2.226000000    -1.986000000
H     3.872000000     1.437000000    -2.293000000
C     3.304000000     2.928000000    -0.770000000
O     4.126000000     2.469000000     0.168000000
C     3.546000000     1.778000000     1.293000000
C     4.419000000     0.635000000     1.683000000
C     5.123000000    -0.106000000     0.722000000
H     5.099000000     0.252000000    -0.304000000
C     4.446000000     0.148000000     3.008000000
H     4.013000000     0.756000000     3.798000000
O     3.357000000     2.684000000     2.401000000
H     2.552000000     1.417000000     0.990000000
C     2.389000000     3.951000000    -0.547000000
C     2.563000000     4.832000000     0.733000000
H     2.283000000     5.877000000     0.585000000
H     3.560000000     4.981000000     1.151000000
C     1.593000000     4.255000000     1.775000000
C     2.110000000     3.220000000     2.584000000
C     1.295000000     2.728000000     3.596000000
H     1.742000000     1.993000000     4.262000000
C    -0.058000000     3.001000000     3.621000000
O    -0.835000000     2.176000000     4.425000000
C    -1.650000000     1.183000000     3.791000000
H    -1.286000000     1.091000000     2.757000000
C    -1.530000000    -0.156000000     4.397000000
C    -2.614000000    -1.047000000     4.499000000
H    -3.596000000    -0.875000000     4.064000000
C    -0.335000000    -0.531000000     5.034000000
H     0.494000000     0.166000000     4.943000000
C    -0.185000000    -1.848000000     5.585000000
O     0.889000000    -2.265000000     6.325000000
C    -1.267000000    -2.726000000     5.555000000
H    -1.225000000    -3.714000000     6.005000000
C    -2.480000000    -2.305000000     5.074000000
O    -3.549000000    -3.174000000     5.040000000
C    -4.489000000    -3.074000000     4.032000000
C    -4.335000000    -3.670000000     2.822000000
H    -3.447000000    -4.285000000     2.700000000
C    -5.599000000    -2.286000000     4.314000000
H    -5.633000000    -1.829000000     5.299000000
C    -6.609000000    -2.234000000     3.402000000
H    -7.502000000    -1.650000000     3.610000000
C    -6.561000000    -2.991000000     2.212000000
H    -7.248000000    -2.944000000     1.371000000
C    -5.354000000    -3.676000000     1.898000000
O    -5.064000000    -4.257000000     0.665000000
C    -4.755000000    -3.547000000    -0.504000000
C    -4.411000000    -4.270000000    -1.640000000
H    -4.414000000    -5.353000000    -1.546000000
C    -3.973000000    -3.644000000    -2.768000000
O    -3.529000000    -4.421000000    -3.835000000
C    -2.955000000    -3.946000000    -4.952000000
C    -1.566000000    -4.011000000    -5.097000000
H    -0.940000000    -4.488000000    -4.347000000
C    -3.802000000    -3.357000000    -5.902000000
H    -4.877000000    -3.301000000    -5.748000000
C    -3.186000000    -2.862000000    -7.023000000
H    -3.752000000    -2.475000000    -7.867000000
C    -1.864000000    -3.006000000    -7.275000000
H    -1.427000000    -2.478000000    -8.118000000
C    -1.015000000    -3.537000000    -6.274000000
O     0.360000000    -3.536000000    -6.491000000
C     1.257000000    -2.733000000    -5.746000000
C     2.456000000    -3.252000000    -5.244000000
H     2.731000000    -4.259000000    -5.549000000
C     3.281000000    -2.388000000    -4.516000000
O     4.309000000    -2.966000000    -3.841000000
C     5.346000000    -2.293000000    -3.235000000
C     5.419000000    -2.503000000    -1.901000000
H     4.685000000    -3.153000000    -1.433000000
C     6.270000000    -1.509000000    -3.912000000
H     6.084000000    -1.291000000    -4.960000000
C     7.396000000    -0.981000000    -3.229000000
H     8.213000000    -0.417000000    -3.672000000
C     7.443000000    -1.162000000    -1.874000000
H     8.290000000    -0.789000000    -1.304000000
C     6.474000000    -1.958000000    -1.147000000
O     6.585000000    -1.965000000     0.220000000
C     5.863000000    -1.228000000     1.154000000
C     5.886000000    -1.642000000     2.468000000
H     6.285000000    -2.605000000     2.779000000
C     5.167000000    -0.972000000     3.434000000
O     5.222000000    -1.272000000     4.852000000
C     4.242000000    -1.088000000     5.759000000
C     4.453000000    -0.194000000     6.796000000
H     5.361000000     0.403000000     6.764000000
C     3.372000000     0.085000000     7.664000000
H     3.513000000     0.889000000     8.382000000
C     2.209000000    -0.630000000     7.555000000
H     1.400000000    -0.387000000     8.239000000
C     2.021000000    -1.517000000     6.507000000
C     3.034000000    -1.750000000     5.593000000
H     2.922000000    -2.437000000     4.758000000
C    -0.538000000    -2.620000000    -0.290000000
H    -1.294000000    -3.282000000     0.125000000
C    -0.619000000    -1.307000000    -0.064000000
H    -1.526000000    -0.886000000     0.363000000
C     0.296000000    -0.370000000    -0.575000000
C     0.005000000     1.102000000    -0.456000000
H    -0.273000000     1.543000000    -1.415000000
H    -0.764000000     1.222000000     0.310000000
H     0.852000000     1.648000000    -0.035000000
C     1.527000000    -0.841000000    -1.105000000
H     2.325000000    -0.179000000    -1.434000000
C     1.703000000    -2.248000000    -1.212000000
H     2.588000000    -2.567000000    -1.758000000
C     0.678000000    -3.160000000    -0.879000000
C     0.912000000    -4.584000000    -1.209000000
O     2.070000000    -4.962000000    -1.310000000
O    -0.003000000    -5.383000000    -1.322000000
O     5.130000000    -5.929000000     2.080000000
H     6.067000000    -5.867000000     2.264000000
H     5.072000000    -6.515000000     1.325000000
O     6.033000000    -8.205000000    -1.777000000
H     5.149000000    -7.845000000    -1.707000000
H     6.116000000    -8.460000000    -2.695000000
O    -3.016000000    -7.968000000     2.106000000
H    -2.370000000    -8.672000000     2.047000000
H    -2.493000000    -7.166000000     2.127000000
O    -1.097000000    -6.967000000    -3.092000000
H    -0.519000000    -6.810000000    -3.839000000
H    -0.753000000    -6.402000000    -2.400000000
O    -3.035000000    -7.488000000    -5.061000000
H    -2.808000000    -7.243000000    -4.164000000
H    -2.425000000    -6.992000000    -5.606000000
O     3.404000000    -4.037000000     0.985000000
H     2.908000000    -4.462000000     0.285000000
H     4.203000000    -4.558000000     1.063000000
O     1.236000000    -7.134000000    -5.360000000
H     1.083000000    -8.037000000    -5.080000000
H     0.451000000    -6.900000000    -5.855000000
O     6.129000000    -5.558000000    -4.057000000
H     5.353000000    -5.025000000    -3.884000000
H     6.588000000    -5.593000000    -3.217000000
O    -1.205000000    -8.471000000    -0.536000000
H    -0.508000000    -8.127000000    -1.095000000
H    -1.674000000    -7.694000000    -0.233000000
O    -1.340000000    -5.782000000     0.843000000
H    -1.357000000    -5.059000000     1.469000000
H    -0.886000000    -5.427000000     0.079000000
O     1.296000000    -7.337000000     0.477000000
H     1.128000000    -6.734000000    -0.247000000
H     0.611000000    -7.139000000     1.117000000
O     2.961000000    -6.939000000    -3.147000000
H     2.793000000    -6.734000000    -4.067000000
H     2.648000000    -6.170000000    -2.670000000
O     3.968000000    -6.780000000    -0.238000000
H     3.054000000    -6.961000000    -0.018000000
H     3.927000000    -6.331000000    -1.082000000
O     1.870000000    -1.302000000     2.216000000
H     2.733000000    -1.717000000     2.191000000
H     1.539000000    -1.384000000     1.322000000
O     3.018000000    -9.445000000     1.182000000
H     3.674000000    -9.146000000     1.812000000
H     2.522000000    -8.656000000     0.961000000
O     2.097000000    -9.311000000    -1.978000000
H     2.531000000    -8.623000000    -2.482000000
H     2.396000000    -9.173000000    -1.079000000
O    -0.234000000    -3.798000000     2.630000000
H    -0.299000000    -2.946000000     2.198000000
H     0.502000000    -3.704000000     3.235000000
O     0.316000000    -6.595000000     2.912000000
H    -0.276000000    -5.855000000     2.778000000
H     1.120000000    -6.201000000     3.249000000
O     2.315000000    -4.647000000     3.435000000
H     2.593000000    -4.649000000     2.519000000
H     3.105000000    -4.872000000     3.926000000
