218
-1458.88045
C    -2.310000000    -1.697000000     4.191000000
H    -1.655000000    -0.972000000     4.668000000
C    -1.803000000    -2.841000000     3.593000000
C    -2.635000000    -3.828000000     3.118000000
H    -2.367000000    -4.755000000     2.618000000
C    -0.310000000    -2.776000000     3.265000000
O     0.462000000    -2.275000000     4.371000000
H    -0.293000000    -2.143000000     2.365000000
O     0.223000000    -4.087000000     2.899000000
C     0.954000000    -4.330000000     1.796000000
C     0.336000000    -4.594000000     0.556000000
H    -0.749000000    -4.621000000     0.498000000
C     1.068000000    -4.503000000    -0.627000000
O     0.413000000    -4.471000000    -1.826000000
C     2.386000000    -4.113000000    -0.551000000
C     3.147000000    -4.009000000    -1.850000000
H     4.176000000    -4.374000000    -1.812000000
C     3.003000000    -2.591000000    -2.475000000
C     3.991000000    -1.710000000    -2.123000000
H     4.681000000    -2.053000000    -1.356000000
H     2.605000000    -4.606000000    -2.586000000
C     3.041000000    -3.829000000     0.638000000
H     4.045000000    -3.426000000     0.746000000
C     2.313000000    -4.005000000     1.834000000
C     2.899000000    -3.628000000     3.179000000
H     3.982000000    -3.763000000     3.130000000
H     2.370000000    -4.174000000     3.963000000
C     2.684000000    -2.134000000     3.360000000
C     3.641000000    -1.208000000     2.859000000
H     4.478000000    -1.475000000     2.218000000
C     1.626000000    -1.596000000     4.106000000
C     1.470000000    -0.214000000     4.240000000
H     0.674000000     0.193000000     4.859000000
C     2.420000000     0.652000000     3.741000000
O     2.129000000     1.955000000     3.952000000
C     1.814000000     2.708000000     2.695000000
C     0.737000000     3.759000000     2.957000000
C     0.756000000     5.064000000     2.435000000
H     1.634000000     5.419000000     1.901000000
C    -0.398000000     3.385000000     3.675000000
H    -0.485000000     2.371000000     4.059000000
O     3.019000000     3.432000000     2.259000000
H     1.388000000     2.003000000     1.966000000
C     3.500000000     0.152000000     3.100000000
C     4.661000000     1.094000000     2.746000000
H     5.603000000     0.542000000     2.732000000
H     4.769000000     1.813000000     3.562000000
C     4.501000000     1.701000000     1.369000000
C     4.960000000     1.053000000     0.251000000
H     5.463000000     0.096000000     0.366000000
C     3.746000000     2.860000000     1.214000000
C     3.448000000     3.316000000    -0.074000000
H     2.734000000     4.125000000    -0.210000000
C     3.856000000     2.596000000    -1.173000000
O     3.305000000     2.929000000    -2.390000000
C     2.289000000     2.102000000    -2.931000000
C     1.177000000     3.027000000    -3.598000000
C     0.652000000     4.092000000    -2.886000000
H     1.076000000     4.242000000    -1.896000000
C     0.540000000     2.653000000    -4.818000000
H     0.887000000     1.746000000    -5.306000000
O     3.037000000     1.261000000    -3.849000000
H     1.776000000     1.443000000    -2.214000000
C     4.612000000     1.451000000    -1.036000000
C     5.099000000     0.562000000    -2.201000000
H     5.976000000     0.030000000    -1.828000000
H     5.477000000     1.126000000    -3.057000000
C     4.039000000    -0.461000000    -2.622000000
C     3.049000000    -0.015000000    -3.471000000
C     2.012000000    -0.883000000    -3.858000000
H     1.266000000    -0.622000000    -4.604000000
C     2.027000000    -2.146000000    -3.336000000
O     0.966000000    -3.025000000    -3.587000000
C     0.057000000    -3.243000000    -2.427000000
H     0.127000000    -2.410000000    -1.711000000
C    -1.424000000    -3.244000000    -2.811000000
C    -2.474000000    -4.036000000    -2.249000000
H    -2.130000000    -4.861000000    -1.631000000
C    -1.737000000    -2.299000000    -3.746000000
H    -0.992000000    -1.660000000    -4.213000000
C    -3.103000000    -2.123000000    -4.080000000
O    -3.442000000    -0.961000000    -4.859000000
C    -4.093000000    -2.955000000    -3.596000000
H    -5.132000000    -2.893000000    -3.908000000
C    -3.768000000    -3.935000000    -2.701000000
O    -4.796000000    -4.645000000    -2.070000000
C    -4.719000000    -5.358000000    -0.905000000
C    -4.731000000    -4.627000000     0.331000000
H    -4.827000000    -3.545000000     0.375000000
C    -4.646000000    -6.756000000    -0.962000000
H    -4.697000000    -7.203000000    -1.951000000
C    -4.510000000    -7.485000000     0.270000000
H    -4.462000000    -8.566000000     0.168000000
C    -4.662000000    -6.728000000     1.505000000
H    -4.518000000    -7.215000000     2.465000000
C    -4.783000000    -5.304000000     1.509000000
O    -4.844000000    -4.703000000     2.737000000
C    -4.003000000    -3.708000000     3.230000000
C    -4.553000000    -2.555000000     3.771000000
H    -5.612000000    -2.355000000     3.911000000
C    -3.715000000    -1.626000000     4.392000000
O    -4.307000000    -0.543000000     5.031000000
C    -3.621000000     0.544000000     5.535000000
C    -3.581000000     1.763000000     4.862000000
H    -4.099000000     1.801000000     3.907000000
C    -2.946000000     0.442000000     6.750000000
H    -2.965000000    -0.426000000     7.404000000
C    -2.048000000     1.419000000     7.155000000
H    -1.393000000     1.315000000     8.016000000
C    -2.037000000     2.593000000     6.415000000
H    -1.389000000     3.452000000     6.565000000
C    -2.890000000     2.823000000     5.375000000
O    -2.628000000     3.947000000     4.624000000
C    -1.456000000     4.282000000     3.910000000
C    -1.432000000     5.520000000     3.328000000
H    -2.280000000     6.192000000     3.427000000
C    -0.341000000     5.890000000     2.587000000
O    -0.568000000     6.990000000     1.805000000
C    -0.179000000     7.134000000     0.452000000
C    -0.876000000     6.568000000    -0.536000000
H    -1.798000000     6.028000000    -0.336000000
C     1.047000000     7.853000000     0.192000000
H     1.633000000     8.302000000     0.990000000
C     1.541000000     7.963000000    -1.091000000
H     2.488000000     8.478000000    -1.233000000
C     0.872000000     7.249000000    -2.130000000
H     1.289000000     7.342000000    -3.129000000
C    -0.336000000     6.616000000    -1.834000000
O    -0.968000000     5.910000000    -2.826000000
C    -0.425000000     4.806000000    -3.426000000
C    -0.895000000     4.487000000    -4.694000000
H    -1.785000000     4.974000000    -5.085000000
C    -0.483000000     3.305000000    -5.292000000
O    -0.937000000     2.867000000    -6.543000000
C    -1.373000000     1.536000000    -6.716000000
C    -0.862000000     0.724000000    -7.705000000
H    -0.060000000     1.098000000    -8.336000000
C    -1.214000000    -0.613000000    -7.744000000
H    -0.784000000    -1.284000000    -8.483000000
C    -2.076000000    -1.191000000    -6.788000000
H    -2.351000000    -2.242000000    -6.778000000
C    -2.587000000    -0.436000000    -5.758000000
C    -2.192000000     0.953000000    -5.706000000
H    -2.652000000     1.566000000    -4.936000000
C    -1.769000000     1.474000000    -1.083000000
H    -1.980000000     1.681000000    -2.129000000
C    -0.713000000     0.565000000    -0.939000000
H    -0.249000000     0.013000000    -1.752000000
C    -0.177000000     0.169000000     0.283000000
C     0.935000000    -0.824000000     0.391000000
H     1.634000000    -0.804000000    -0.448000000
H     1.498000000    -0.556000000     1.288000000
H     0.534000000    -1.829000000     0.538000000
C    -0.774000000     0.778000000     1.365000000
H    -0.436000000     0.580000000     2.379000000
C    -1.909000000     1.639000000     1.237000000
H    -2.442000000     1.919000000     2.142000000
C    -2.400000000     2.070000000     0.031000000
C    -3.499000000     3.048000000    -0.088000000
O    -4.035000000     3.439000000     0.935000000
O    -3.892000000     3.404000000    -1.233000000
O    -5.027000000     5.230000000     2.668000000
H    -5.254000000     5.945000000     2.073000000
H    -4.603000000     4.579000000     2.110000000
O    -2.971000000     9.198000000     0.598000000
H    -2.470000000     9.987000000     0.390000000
H    -2.450000000     8.481000000     0.238000000
O    -4.637000000     8.272000000     3.849000000
H    -4.933000000     7.960000000     2.994000000
H    -4.744000000     9.222000000     3.807000000
O    -6.381000000     2.210000000     1.886000000
H    -5.636000000     2.693000000     1.529000000
H    -6.576000000     2.648000000     2.714000000
O    -6.032000000    -0.229000000    -4.646000000
H    -5.132000000    -0.498000000    -4.834000000
H    -5.983000000     0.184000000    -3.784000000
O    -2.711000000     8.058000000    -3.829000000
H    -3.239000000     8.772000000    -3.471000000
H    -2.495000000     7.517000000    -3.070000000
O    -3.714000000    -1.044000000    -0.016000000
H    -2.859000000    -0.630000000     0.104000000
H    -3.990000000    -0.774000000    -0.892000000
O    -6.204000000    -1.399000000     1.527000000
H    -6.435000000    -0.566000000     1.115000000
H    -5.262000000    -1.486000000     1.381000000
O    -6.616000000     3.882000000     4.300000000
H    -5.913000000     4.341000000     3.839000000
H    -7.358000000     4.485000000     4.265000000
O    -4.894000000     3.209000000    -6.154000000
H    -5.704000000     3.700000000    -6.021000000
H    -4.427000000     3.286000000    -5.322000000
O    -7.438000000     4.733000000    -5.383000000
H    -7.639000000     5.668000000    -5.371000000
H    -7.311000000     4.503000000    -4.462000000
O    -5.741000000     1.688000000    -2.408000000
H    -5.029000000     2.288000000    -2.184000000
H    -6.363000000     2.227000000    -2.897000000
O    -7.515000000     3.980000000    -2.728000000
H    -6.987000000     4.107000000    -1.940000000
H    -8.341000000     4.425000000    -2.537000000
O    -3.788000000     4.024000000    -3.820000000
H    -3.815000000     3.689000000    -2.924000000
H    -3.769000000     4.975000000    -3.721000000
O    -6.785000000     0.681000000    -0.190000000
H    -6.574000000     1.419000000     0.383000000
H    -6.437000000     0.936000000    -1.045000000
O    -6.299000000     4.505000000    -0.299000000
H    -5.404000000     4.235000000    -0.092000000
H    -6.754000000     4.486000000     0.543000000
O    -6.018000000     7.667000000     1.475000000
H    -5.720000000     8.278000000     0.801000000
H    -6.915000000     7.450000000     1.222000000
O    -4.632000000     6.297000000     5.482000000
H    -4.407000000     5.682000000     4.783000000
H    -4.638000000     7.153000000     5.054000000
O    -4.074000000     6.141000000    -1.756000000
H    -4.998000000     5.915000000    -1.643000000
H    -3.599000000     5.422000000    -1.340000000
