218
-1478.02605
C    -3.068000000    -1.485000000     3.702000000
H    -2.459000000    -0.795000000     4.282000000
C    -2.405000000    -2.633000000     3.253000000
C    -3.143000000    -3.542000000     2.451000000
H    -2.650000000    -4.433000000     2.071000000
C    -0.949000000    -2.683000000     3.343000000
O    -0.502000000    -2.111000000     4.497000000
H    -0.614000000    -2.023000000     2.530000000
O    -0.320000000    -3.944000000     3.126000000
C     0.763000000    -3.937000000     2.284000000
C     0.447000000    -4.299000000     0.952000000
H    -0.550000000    -4.541000000     0.592000000
C     1.512000000    -4.216000000     0.023000000
O     1.220000000    -4.508000000    -1.294000000
C     2.813000000    -3.930000000     0.395000000
C     3.883000000    -4.011000000    -0.628000000
H     4.773000000    -4.368000000    -0.106000000
C     3.860000000    -2.619000000    -1.351000000
C     4.717000000    -1.582000000    -0.933000000
H     5.473000000    -1.891000000    -0.215000000
H     3.594000000    -4.793000000    -1.333000000
C     3.050000000    -3.657000000     1.743000000
H     4.109000000    -3.552000000     1.966000000
C     2.007000000    -3.629000000     2.712000000
C     2.261000000    -3.237000000     4.102000000
H     3.342000000    -3.319000000     4.237000000
H     1.726000000    -3.932000000     4.752000000
C     1.896000000    -1.724000000     4.084000000
C     2.945000000    -0.753000000     3.960000000
H     3.953000000    -1.124000000     3.792000000
C     0.589000000    -1.288000000     4.382000000
C     0.302000000     0.098000000     4.473000000
H    -0.738000000     0.391000000     4.594000000
C     1.316000000     1.007000000     4.301000000
O     0.973000000     2.343000000     4.141000000
C     0.785000000     2.879000000     2.826000000
C    -0.527000000     3.607000000     2.691000000
C    -0.706000000     4.523000000     1.681000000
H     0.075000000     4.666000000     0.938000000
C    -1.487000000     3.545000000     3.679000000
H    -1.372000000     2.837000000     4.496000000
O     1.947000000     3.745000000     2.501000000
H     0.727000000     2.019000000     2.143000000
C     2.662000000     0.616000000     4.073000000
C     3.715000000     1.676000000     3.726000000
H     4.713000000     1.294000000     3.956000000
H     3.619000000     2.487000000     4.451000000
C     3.788000000     2.118000000     2.279000000
C     4.630000000     1.443000000     1.375000000
H     5.191000000     0.600000000     1.769000000
C     2.985000000     3.204000000     1.742000000
C     3.071000000     3.579000000     0.424000000
H     2.433000000     4.395000000     0.095000000
C     3.912000000     2.886000000    -0.451000000
O     3.698000000     3.115000000    -1.777000000
C     2.946000000     2.156000000    -2.574000000
C     2.034000000     2.788000000    -3.569000000
C     1.539000000     4.074000000    -3.261000000
H     1.821000000     4.650000000    -2.383000000
C     1.641000000     2.205000000    -4.733000000
H     1.985000000     1.252000000    -5.126000000
O     3.908000000     1.218000000    -3.197000000
H     2.268000000     1.630000000    -1.887000000
C     4.689000000     1.790000000     0.032000000
C     5.545000000     0.892000000    -0.899000000
H     6.354000000     0.491000000    -0.285000000
H     5.935000000     1.498000000    -1.720000000
C     4.807000000    -0.281000000    -1.509000000
C     4.040000000    -0.085000000    -2.674000000
C     3.204000000    -1.097000000    -3.193000000
H     2.550000000    -0.860000000    -4.028000000
C     3.117000000    -2.357000000    -2.560000000
O     2.074000000    -3.147000000    -2.911000000
C     0.896000000    -3.378000000    -2.092000000
H     0.722000000    -2.550000000    -1.388000000
C    -0.364000000    -3.529000000    -2.989000000
C    -1.349000000    -4.407000000    -2.558000000
H    -1.242000000    -4.983000000    -1.643000000
C    -0.538000000    -2.800000000    -4.150000000
H     0.228000000    -2.062000000    -4.375000000
C    -1.682000000    -2.852000000    -4.861000000
O    -1.906000000    -2.011000000    -5.999000000
C    -2.708000000    -3.670000000    -4.355000000
H    -3.647000000    -3.809000000    -4.884000000
C    -2.460000000    -4.650000000    -3.353000000
O    -3.548000000    -5.361000000    -2.877000000
C    -3.863000000    -5.731000000    -1.607000000
C    -4.410000000    -4.782000000    -0.720000000
H    -4.598000000    -3.749000000    -1.001000000
C    -3.639000000    -7.098000000    -1.177000000
H    -3.253000000    -7.886000000    -1.818000000
C    -3.993000000    -7.359000000     0.116000000
H    -3.754000000    -8.361000000     0.463000000
C    -4.462000000    -6.453000000     1.020000000
H    -4.545000000    -6.810000000     2.043000000
C    -4.686000000    -5.137000000     0.606000000
O    -5.250000000    -4.211000000     1.480000000
C    -4.515000000    -3.323000000     2.226000000
C    -5.157000000    -2.239000000     2.747000000
H    -6.212000000    -2.048000000     2.573000000
C    -4.441000000    -1.276000000     3.438000000
O    -5.116000000    -0.096000000     3.718000000
C    -4.687000000     0.810000000     4.614000000
C    -4.610000000     2.169000000     4.266000000
H    -4.914000000     2.522000000     3.283000000
C    -4.528000000     0.555000000     5.941000000
H    -4.841000000    -0.448000000     6.223000000
C    -4.100000000     1.450000000     6.900000000
H    -3.918000000     1.162000000     7.932000000
C    -3.709000000     2.690000000     6.409000000
H    -3.397000000     3.439000000     7.133000000
C    -4.059000000     3.066000000     5.106000000
O    -3.642000000     4.307000000     4.555000000
C    -2.595000000     4.407000000     3.648000000
C    -2.829000000     5.224000000     2.565000000
H    -3.747000000     5.805000000     2.540000000
C    -1.868000000     5.202000000     1.514000000
O    -2.052000000     6.082000000     0.426000000
C    -1.034000000     6.532000000    -0.417000000
C    -0.800000000     5.880000000    -1.657000000
H    -1.339000000     4.960000000    -1.869000000
C    -0.451000000     7.767000000    -0.163000000
H    -0.670000000     8.327000000     0.742000000
C     0.165000000     8.397000000    -1.223000000
H     0.502000000     9.397000000    -0.964000000
C     0.418000000     7.815000000    -2.432000000
H     0.795000000     8.406000000    -3.263000000
C     0.005000000     6.500000000    -2.623000000
O     0.121000000     5.985000000    -3.829000000
C     0.659000000     4.729000000    -4.084000000
C     0.175000000     4.083000000    -5.250000000
H    -0.515000000     4.620000000    -5.896000000
C     0.619000000     2.799000000    -5.521000000
O     0.215000000     2.206000000    -6.693000000
C     0.135000000     0.886000000    -6.870000000
C     0.970000000     0.346000000    -7.815000000
H     1.633000000     1.005000000    -8.369000000
C     0.834000000    -0.997000000    -8.136000000
H     1.527000000    -1.444000000    -8.844000000
C     0.027000000    -1.820000000    -7.405000000
H    -0.022000000    -2.885000000    -7.617000000
C    -0.915000000    -1.257000000    -6.552000000
C    -0.838000000     0.099000000    -6.243000000
H    -1.607000000     0.509000000    -5.593000000
C    -1.008000000     1.313000000    -2.224000000
H    -1.044000000     1.612000000    -3.268000000
C    -0.092000000     0.432000000    -1.651000000
H     0.651000000    -0.025000000    -2.300000000
C    -0.132000000     0.158000000    -0.271000000
C     1.003000000    -0.596000000     0.363000000
H     1.307000000    -0.145000000     1.310000000
H     0.572000000    -1.554000000     0.660000000
H     1.832000000    -0.818000000    -0.312000000
C    -1.133000000     0.719000000     0.527000000
H    -1.015000000     0.531000000     1.592000000
C    -2.193000000     1.434000000    -0.087000000
H    -2.867000000     1.971000000     0.576000000
C    -2.116000000     1.760000000    -1.467000000
C    -3.186000000     2.617000000    -2.123000000
O    -4.180000000     2.878000000    -1.474000000
O    -3.178000000     2.872000000    -3.271000000
O    -5.380000000     1.948000000     0.590000000
H    -5.138000000     2.188000000    -0.304000000
H    -4.927000000     1.120000000     0.747000000
O    -4.200000000     0.232000000    -4.069000000
H    -3.708000000    -0.228000000    -3.389000000
H    -4.039000000     1.159000000    -3.895000000
O    -5.068000000     8.047000000     0.003000000
H    -4.824000000     7.212000000    -0.396000000
H    -5.874000000     8.300000000    -0.447000000
O    -3.142000000    -1.654000000    -0.331000000
H    -3.895000000    -1.105000000    -0.551000000
H    -2.440000000    -1.032000000    -0.141000000
O    -6.117000000     6.819000000    -4.479000000
H    -6.594000000     7.615000000    -4.245000000
H    -6.702000000     6.105000000    -4.226000000
O    -5.450000000    -0.461000000    -1.281000000
H    -5.644000000    -1.378000000    -1.473000000
H    -6.296000000    -0.080000000    -1.049000000
O    -3.311000000     2.386000000    -6.122000000
H    -3.289000000     2.111000000    -5.205000000
H    -2.977000000     3.282000000    -6.112000000
O    -5.819000000     3.150000000    -5.589000000
H    -5.045000000     2.659000000    -5.864000000
H    -5.998000000     3.744000000    -6.319000000
O    -6.180000000    -1.624000000    -5.165000000
H    -5.562000000    -0.942000000    -4.902000000
H    -6.316000000    -1.475000000    -6.101000000
O    -4.449000000     5.908000000    -6.653000000
H    -5.191000000     6.142000000    -6.096000000
H    -3.842000000     5.457000000    -6.066000000
O    -2.803000000     4.816000000    -4.875000000
H    -2.623000000     5.624000000    -4.394000000
H    -3.167000000     4.223000000    -4.218000000
O    -5.974000000     5.363000000     1.320000000
H    -6.032000000     4.543000000     0.829000000
H    -5.706000000     6.013000000     0.670000000
O    -7.987000000     0.465000000    -1.278000000
H    -8.392000000     1.128000000    -0.719000000
H    -7.588000000     0.964000000    -1.991000000
O    -7.824000000     2.140000000     1.864000000
H    -7.756000000     2.804000000     2.550000000
H    -6.949000000     2.107000000     1.475000000
O    -3.537000000     0.964000000    -8.469000000
H    -3.478000000     1.349000000    -7.594000000
H    -3.834000000     1.683000000    -9.027000000
O    -3.431000000     7.109000000    -3.453000000
H    -3.777000000     6.481000000    -2.819000000
H    -4.208000000     7.480000000    -3.871000000
O    -6.477000000     3.441000000    -2.961000000
H    -5.642000000     3.189000000    -2.566000000
H    -6.370000000     3.246000000    -3.892000000
O    -8.373000000     5.369000000    -3.551000000
H    -9.010000000     5.455000000    -2.842000000
H    -7.676000000     4.827000000    -3.182000000
O    -4.235000000     5.690000000    -1.385000000
H    -4.674000000     4.847000000    -1.501000000
H    -3.604000000     5.537000000    -0.683000000
