218
-1448.52250
C     0.196000000    -0.944000000     5.151000000
H     1.113000000    -0.365000000     5.083000000
C     0.101000000    -1.972000000     4.232000000
C    -1.115000000    -2.638000000     4.180000000
H    -1.186000000    -3.393000000     3.402000000
C     1.219000000    -2.377000000     3.347000000
O     2.492000000    -1.855000000     3.771000000
H     0.984000000    -1.843000000     2.415000000
O     1.328000000    -3.814000000     3.054000000
C     1.582000000    -4.037000000     1.768000000
C     0.459000000    -4.432000000     1.056000000
H    -0.456000000    -4.641000000     1.605000000
C     0.574000000    -4.728000000    -0.288000000
O    -0.582000000    -5.043000000    -0.975000000
C     1.774000000    -4.550000000    -0.968000000
C     1.818000000    -4.717000000    -2.525000000
H     2.801000000    -5.053000000    -2.863000000
C     1.487000000    -3.413000000    -3.300000000
C     2.520000000    -2.551000000    -3.775000000
H     3.578000000    -2.714000000    -3.588000000
H     1.152000000    -5.504000000    -2.885000000
C     2.924000000    -4.250000000    -0.214000000
H     3.794000000    -4.042000000    -0.832000000
C     2.808000000    -3.890000000     1.130000000
C     4.093000000    -3.306000000     1.760000000
H     4.955000000    -3.734000000     1.246000000
H     4.078000000    -3.663000000     2.792000000
C     3.986000000    -1.779000000     1.850000000
C     4.637000000    -1.057000000     0.892000000
H     5.119000000    -1.568000000     0.062000000
C     3.267000000    -1.110000000     2.859000000
C     3.203000000     0.286000000     2.869000000
H     2.529000000     0.751000000     3.584000000
C     3.895000000     0.960000000     1.883000000
O     3.762000000     2.335000000     1.791000000
C     2.878000000     2.859000000     0.737000000
C     1.928000000     3.857000000     1.440000000
C     1.543000000     5.017000000     0.781000000
H     1.993000000     5.275000000    -0.174000000
C     1.249000000     3.547000000     2.651000000
H     1.538000000     2.647000000     3.188000000
O     3.642000000     3.474000000    -0.370000000
H     2.183000000     2.067000000     0.422000000
C     4.713000000     0.326000000     0.901000000
C     5.356000000     1.145000000    -0.260000000
H     6.208000000     0.609000000    -0.682000000
H     5.775000000     2.099000000     0.069000000
C     4.440000000     1.489000000    -1.423000000
C     4.307000000     0.448000000    -2.374000000
H     4.907000000    -0.452000000    -2.259000000
C     3.778000000     2.672000000    -1.506000000
C     2.976000000     2.983000000    -2.568000000
H     2.643000000     4.002000000    -2.752000000
C     2.745000000     1.911000000    -3.507000000
O     1.737000000     2.091000000    -4.403000000
C     0.540000000     1.452000000    -3.950000000
C    -0.597000000     2.365000000    -4.167000000
C    -0.513000000     3.754000000    -3.886000000
H     0.438000000     4.104000000    -3.493000000
C    -1.864000000     1.843000000    -4.477000000
H    -1.937000000     0.845000000    -4.901000000
O     0.407000000     0.309000000    -4.780000000
H     0.610000000     1.129000000    -2.901000000
C     3.481000000     0.716000000    -3.514000000
C     3.345000000    -0.343000000    -4.546000000
H     4.273000000    -0.896000000    -4.703000000
H     3.119000000     0.264000000    -5.425000000
C     2.195000000    -1.237000000    -4.191000000
C     0.860000000    -0.900000000    -4.366000000
C    -0.152000000    -1.862000000    -4.129000000
H    -1.194000000    -1.557000000    -4.183000000
C     0.114000000    -3.038000000    -3.495000000
O    -0.896000000    -3.788000000    -2.959000000
C    -1.230000000    -3.906000000    -1.558000000
H    -0.848000000    -2.991000000    -1.082000000
C    -2.749000000    -3.968000000    -1.326000000
C    -3.328000000    -4.703000000    -0.263000000
H    -2.752000000    -5.448000000     0.279000000
C    -3.521000000    -2.945000000    -1.934000000
H    -2.984000000    -2.291000000    -2.616000000
C    -4.844000000    -2.799000000    -1.606000000
O    -5.530000000    -1.862000000    -2.263000000
C    -5.410000000    -3.598000000    -0.625000000
H    -6.391000000    -3.380000000    -0.210000000
C    -4.643000000    -4.490000000     0.072000000
O    -5.109000000    -5.327000000     1.073000000
C    -4.575000000    -5.257000000     2.379000000
C    -4.254000000    -4.016000000     2.992000000
H    -4.400000000    -3.068000000     2.479000000
C    -4.392000000    -6.474000000     3.070000000
H    -4.577000000    -7.438000000     2.602000000
C    -3.762000000    -6.403000000     4.293000000
H    -3.391000000    -7.317000000     4.750000000
C    -3.516000000    -5.213000000     4.961000000
H    -3.183000000    -5.228000000     5.996000000
C    -3.734000000    -4.033000000     4.258000000
O    -3.445000000    -2.855000000     4.913000000
C    -2.196000000    -2.287000000     4.967000000
C    -2.048000000    -1.344000000     5.986000000
H    -2.871000000    -1.081000000     6.645000000
C    -0.844000000    -0.589000000     6.059000000
O    -0.625000000     0.265000000     7.122000000
C    -0.155000000     1.537000000     6.871000000
C    -0.541000000     2.220000000     5.785000000
H    -1.160000000     1.796000000     4.999000000
C     0.806000000     2.150000000     7.736000000
H     1.146000000     1.667000000     8.648000000
C     1.369000000     3.388000000     7.471000000
H     2.038000000     3.931000000     8.134000000
C     0.993000000     3.927000000     6.248000000
H     1.393000000     4.895000000     5.955000000
C     0.099000000     3.375000000     5.374000000
O    -0.461000000     4.066000000     4.275000000
C     0.253000000     4.402000000     3.152000000
C    -0.004000000     5.554000000     2.524000000
H    -0.748000000     6.263000000     2.877000000
C     0.646000000     5.843000000     1.268000000
O     0.338000000     6.991000000     0.602000000
C     0.247000000     7.150000000    -0.773000000
C    -0.555000000     6.391000000    -1.618000000
H    -1.260000000     5.648000000    -1.256000000
C     1.021000000     8.099000000    -1.370000000
H     1.600000000     8.842000000    -0.827000000
C     1.040000000     8.328000000    -2.756000000
H     1.822000000     9.010000000    -3.079000000
C     0.326000000     7.505000000    -3.570000000
H     0.467000000     7.544000000    -4.647000000
C    -0.519000000     6.553000000    -2.997000000
O    -1.471000000     5.966000000    -3.911000000
C    -1.613000000     4.583000000    -4.000000000
C    -2.912000000     4.070000000    -4.225000000
H    -3.713000000     4.799000000    -4.133000000
C    -3.005000000     2.670000000    -4.529000000
O    -4.246000000     2.112000000    -4.754000000
C    -4.521000000     0.748000000    -4.701000000
C    -4.260000000    -0.045000000    -5.852000000
H    -3.770000000     0.363000000    -6.732000000
C    -4.422000000    -1.393000000    -5.822000000
H    -4.216000000    -2.023000000    -6.683000000
C    -4.656000000    -1.996000000    -4.501000000
H    -4.725000000    -3.079000000    -4.436000000
C    -5.077000000    -1.216000000    -3.438000000
C    -4.944000000     0.148000000    -3.505000000
H    -5.128000000     0.750000000    -2.619000000
C    -2.492000000     0.081000000     0.837000000
H    -3.325000000    -0.545000000     1.147000000
C    -1.285000000    -0.530000000     0.453000000
H    -1.218000000    -1.615000000     0.481000000
C    -0.220000000     0.262000000     0.047000000
C     1.097000000    -0.445000000    -0.320000000
H     1.573000000    -0.140000000    -1.254000000
H     1.920000000    -0.432000000     0.398000000
H     0.923000000    -1.512000000    -0.474000000
C    -0.324000000     1.651000000    -0.154000000
H     0.476000000     2.228000000    -0.611000000
C    -1.556000000     2.266000000     0.263000000
H    -1.536000000     3.348000000     0.166000000
C    -2.667000000     1.495000000     0.707000000
C    -3.964000000     2.148000000     1.156000000
O    -3.895000000     3.357000000     1.303000000
O    -4.907000000     1.507000000     1.513000000
O    -9.281000000     0.363000000     2.645000000
H    -9.601000000     0.042000000     1.802000000
H    -8.328000000     0.311000000     2.575000000
O    -6.693000000     5.823000000     1.073000000
H    -6.007000000     5.738000000     1.735000000
H    -7.181000000     5.002000000     1.127000000
O    -3.699000000     4.693000000    -0.888000000
H    -3.649000000     4.033000000    -0.197000000
H    -4.075000000     5.462000000    -0.459000000
O    -6.751000000     3.339000000     2.584000000
H    -6.155000000     2.763000000     2.104000000
H    -6.740000000     3.002000000     3.479000000
O    -4.602000000     5.437000000     2.639000000
H    -3.731000000     5.764000000     2.861000000
H    -4.449000000     4.550000000     2.314000000
O    -5.648000000    -0.265000000     4.173000000
H    -5.405000000    -0.183000000     3.251000000
H    -4.933000000     0.160000000     4.647000000
O    -6.757000000    -0.409000000     1.533000000
H    -6.003000000     0.178000000     1.476000000
H    -7.016000000    -0.553000000     0.623000000
O    -7.183000000     2.339000000     5.363000000
H    -7.298000000     1.681000000     6.049000000
H    -8.056000000     2.709000000     5.237000000
O    -7.499000000    -3.037000000     2.469000000
H    -8.219000000    -2.692000000     1.940000000
H    -6.991000000    -2.265000000     2.716000000
O    -2.911000000     8.092000000     0.231000000
H    -2.611000000     8.999000000     0.302000000
H    -2.627000000     7.682000000     1.048000000
O    -6.280000000     6.149000000    -1.885000000
H    -5.797000000     5.325000000    -1.953000000
H    -6.268000000     6.357000000    -0.951000000
O    -5.840000000     8.259000000     0.155000000
H    -4.899000000     8.160000000     0.306000000
H    -6.229000000     7.481000000     0.554000000
O    -5.881000000     3.410000000    -2.923000000
H    -5.266000000     3.831000000    -2.322000000
H    -5.325000000     2.954000000    -3.554000000
O    -6.443000000     1.269000000    -0.894000000
H    -6.545000000     2.131000000    -1.298000000
H    -6.003000000     1.446000000    -0.062000000
O    -7.717000000     5.715000000     4.234000000
H    -7.705000000     4.957000000     3.650000000
H    -8.444000000     6.251000000     3.916000000
O    -4.415000000     1.567000000     7.412000000
H    -3.999000000     2.063000000     6.707000000
H    -5.338000000     1.521000000     7.161000000
O    -7.919000000     3.626000000    -0.341000000
H    -8.623000000     3.045000000    -0.053000000
H    -8.234000000     4.506000000    -0.131000000
O    -3.904000000     2.032000000     4.191000000
H    -4.230000000     1.987000000     3.292000000
H    -3.925000000     2.965000000     4.406000000
O    -3.355000000     4.901000000     5.168000000
H    -3.447000000     5.641000000     4.568000000
H    -4.006000000     5.063000000     5.850000000
