218
-1449.54736
C    -1.648000000    -0.434000000     5.167000000
H    -0.808000000     0.216000000     5.399000000
C    -1.428000000    -1.705000000     4.555000000
C    -2.490000000    -2.551000000     4.478000000
H    -2.542000000    -3.526000000     4.001000000
C    -0.044000000    -1.942000000     3.917000000
O     0.981000000    -1.290000000     4.719000000
H    -0.043000000    -1.527000000     2.899000000
O     0.224000000    -3.318000000     3.851000000
C     0.754000000    -3.753000000     2.676000000
C    -0.114000000    -4.205000000     1.692000000
H    -1.185000000    -4.148000000     1.869000000
C     0.475000000    -4.730000000     0.535000000
O    -0.495000000    -5.027000000    -0.424000000
C     1.844000000    -4.596000000     0.241000000
C     2.380000000    -4.909000000    -1.150000000
H     3.373000000    -5.361000000    -1.109000000
C     2.296000000    -3.702000000    -2.039000000
C     3.412000000    -2.835000000    -2.167000000
H     4.388000000    -3.023000000    -1.727000000
H     1.692000000    -5.643000000    -1.575000000
C     2.674000000    -4.072000000     1.197000000
H     3.726000000    -4.087000000     0.923000000
C     2.141000000    -3.678000000     2.418000000
C     3.013000000    -3.104000000     3.573000000
H     4.018000000    -3.515000000     3.459000000
H     2.694000000    -3.438000000     4.563000000
C     3.046000000    -1.543000000     3.453000000
C     4.056000000    -0.941000000     2.733000000
H     4.873000000    -1.597000000     2.444000000
C     2.030000000    -0.765000000     4.020000000
C     2.081000000     0.559000000     3.859000000
H     1.309000000     1.151000000     4.344000000
C     3.062000000     1.160000000     3.069000000
O     2.962000000     2.488000000     2.837000000
C     2.560000000     2.970000000     1.577000000
C     1.642000000     4.143000000     1.702000000
C     1.726000000     5.260000000     0.851000000
H     2.327000000     5.421000000    -0.041000000
C     0.545000000     4.131000000     2.688000000
H     0.400000000     3.250000000     3.308000000
O     3.706000000     3.343000000     0.812000000
H     2.101000000     2.172000000     0.974000000
C     4.100000000     0.432000000     2.441000000
C     5.270000000     1.016000000     1.579000000
H     6.125000000     0.344000000     1.681000000
H     5.448000000     1.968000000     2.082000000
C     4.885000000     1.279000000     0.136000000
C     5.121000000     0.302000000    -0.808000000
H     5.592000000    -0.635000000    -0.521000000
C     4.104000000     2.396000000    -0.167000000
C     3.577000000     2.558000000    -1.454000000
H     3.015000000     3.439000000    -1.752000000
C     3.779000000     1.565000000    -2.383000000
O     3.030000000     1.678000000    -3.573000000
C     1.842000000     0.885000000    -3.723000000
C     0.714000000     1.701000000    -4.346000000
C     0.432000000     2.992000000    -3.819000000
H     1.113000000     3.356000000    -3.054000000
C    -0.255000000     1.126000000    -5.144000000
H    -0.092000000     0.076000000    -5.372000000
O     2.065000000    -0.302000000    -4.407000000
H     1.499000000     0.596000000    -2.719000000
C     4.483000000     0.426000000    -2.029000000
C     4.581000000    -0.733000000    -2.990000000
H     5.514000000    -1.276000000    -2.823000000
H     4.655000000    -0.351000000    -4.010000000
C     3.374000000    -1.693000000    -2.984000000
C     2.178000000    -1.450000000    -3.657000000
C     1.092000000    -2.321000000    -3.651000000
H     0.158000000    -1.979000000    -4.090000000
C     1.154000000    -3.427000000    -2.762000000
O     0.014000000    -4.247000000    -2.582000000
C    -0.788000000    -3.995000000    -1.414000000
H    -0.421000000    -3.012000000    -1.081000000
C    -2.177000000    -3.711000000    -1.800000000
C    -2.974000000    -3.451000000    -0.737000000
H    -2.546000000    -3.497000000     0.262000000
C    -2.677000000    -3.483000000    -3.135000000
H    -2.003000000    -3.600000000    -3.979000000
C    -3.935000000    -3.075000000    -3.384000000
O    -4.372000000    -2.650000000    -4.640000000
C    -4.822000000    -2.982000000    -2.261000000
H    -5.877000000    -2.795000000    -2.443000000
C    -4.309000000    -3.109000000    -0.940000000
O    -5.161000000    -2.771000000     0.097000000
C    -5.242000000    -3.487000000     1.239000000
C    -5.051000000    -2.815000000     2.494000000
H    -4.764000000    -1.767000000     2.483000000
C    -5.408000000    -4.864000000     1.267000000
H    -5.674000000    -5.385000000     0.351000000
C    -5.397000000    -5.622000000     2.401000000
H    -5.577000000    -6.694000000     2.392000000
C    -5.132000000    -4.976000000     3.607000000
H    -5.010000000    -5.602000000     4.487000000
C    -5.052000000    -3.588000000     3.667000000
O    -4.714000000    -3.082000000     4.909000000
C    -3.720000000    -2.138000000     4.940000000
C    -3.972000000    -0.837000000     5.456000000
H    -4.989000000    -0.456000000     5.466000000
C    -2.896000000     0.002000000     5.466000000
O    -3.155000000     1.324000000     5.845000000
C    -2.292000000     2.400000000     5.722000000
C    -2.397000000     3.304000000     4.657000000
H    -3.036000000     3.126000000     3.796000000
C    -1.414000000     2.630000000     6.794000000
H    -1.393000000     1.909000000     7.607000000
C    -0.545000000     3.703000000     6.692000000
H     0.199000000     3.830000000     7.475000000
C    -0.604000000     4.511000000     5.579000000
H     0.066000000     5.367000000     5.545000000
C    -1.543000000     4.330000000     4.576000000
O    -1.485000000     5.139000000     3.529000000
C    -0.305000000     5.221000000     2.772000000
C    -0.245000000     6.242000000     1.873000000
H    -0.968000000     7.037000000     2.037000000
C     0.781000000     6.265000000     0.926000000
O     0.612000000     7.360000000     0.064000000
C     0.752000000     7.073000000    -1.234000000
C    -0.251000000     6.306000000    -1.815000000
H    -1.095000000     6.073000000    -1.170000000
C     1.832000000     7.433000000    -2.042000000
H     2.672000000     7.967000000    -1.604000000
C     1.962000000     6.875000000    -3.367000000
H     2.927000000     6.908000000    -3.867000000
C     0.967000000     6.024000000    -3.871000000
H     0.929000000     5.704000000    -4.909000000
C    -0.127000000     5.788000000    -3.088000000
O    -1.103000000     4.935000000    -3.610000000
C    -0.711000000     3.710000000    -4.200000000
C    -1.589000000     3.135000000    -5.172000000
H    -2.493000000     3.646000000    -5.493000000
C    -1.355000000     1.847000000    -5.562000000
O    -2.262000000     1.276000000    -6.506000000
C    -2.557000000    -0.053000000    -6.590000000
C    -1.797000000    -0.806000000    -7.486000000
H    -1.128000000    -0.330000000    -8.197000000
C    -1.921000000    -2.220000000    -7.420000000
H    -1.355000000    -2.837000000    -8.113000000
C    -2.721000000    -2.857000000    -6.441000000
H    -2.777000000    -3.942000000    -6.455000000
C    -3.503000000    -2.076000000    -5.581000000
C    -3.330000000    -0.702000000    -5.614000000
H    -3.922000000    -0.128000000    -4.906000000
C    -2.689000000     0.783000000     1.012000000
H    -3.520000000     0.347000000     1.561000000
C    -1.542000000     0.018000000     0.733000000
H    -1.518000000    -0.904000000     1.307000000
C    -0.497000000     0.568000000     0.054000000
C     0.705000000    -0.278000000    -0.016000000
H     0.629000000    -1.319000000    -0.337000000
H     1.353000000     0.112000000    -0.804000000
H     1.275000000    -0.279000000     0.915000000
C    -0.554000000     1.820000000    -0.522000000
H     0.224000000     2.299000000    -1.111000000
C    -1.660000000     2.555000000    -0.287000000
H    -1.610000000     3.571000000    -0.671000000
C    -2.755000000     2.056000000     0.416000000
C    -4.080000000     2.825000000     0.376000000
O    -3.962000000     4.056000000     0.203000000
O    -5.094000000     2.329000000     0.823000000
O    -6.062000000     8.216000000    -2.061000000
H    -6.890000000     7.839000000    -2.357000000
H    -5.393000000     7.738000000    -2.551000000
O    -4.324000000     6.397000000     1.955000000
H    -4.216000000     5.801000000     2.696000000
H    -4.235000000     5.838000000     1.183000000
O    -4.813000000     5.113000000    -1.938000000
H    -4.352000000     4.680000000    -1.219000000
H    -5.407000000     5.727000000    -1.506000000
O    -6.735000000     3.581000000    -0.817000000
H    -6.069000000     3.228000000    -0.227000000
H    -6.237000000     3.993000000    -1.523000000
O    -8.229000000     4.967000000    -3.090000000
H    -8.075000000     4.230000000    -2.500000000
H    -7.819000000     4.703000000    -3.914000000
O    -4.218000000     6.737000000    -3.911000000
H    -4.165000000     5.925000000    -3.408000000
H    -3.622000000     6.602000000    -4.647000000
O    -5.838000000     3.991000000     2.771000000
H    -5.282000000     3.606000000     2.094000000
H    -6.703000000     3.613000000     2.615000000
O    -8.109000000     2.655000000     1.673000000
H    -8.864000000     2.435000000     1.128000000
H    -7.407000000     2.836000000     1.048000000
O    -6.549000000     0.123000000    -0.052000000
H    -5.903000000     0.546000000     0.514000000
H    -6.117000000     0.061000000    -0.904000000
O    -6.936000000     6.665000000     1.522000000
H    -5.994000000     6.553000000     1.651000000
H    -7.211000000     5.870000000     1.066000000
O    -5.853000000     2.494000000    -4.556000000
H    -5.886000000     1.775000000    -3.926000000
H    -6.149000000     2.105000000    -5.379000000
O    -2.957000000    -0.232000000    -2.530000000
H    -2.446000000    -0.892000000    -3.000000000
H    -2.302000000     0.305000000    -2.085000000
O    -5.749000000     0.212000000    -2.905000000
H    -4.897000000     0.174000000    -2.472000000
H    -6.106000000    -0.671000000    -2.811000000
O    -8.649000000    -0.361000000    -2.006000000
H    -8.065000000    -0.110000000    -1.291000000
H    -8.935000000     0.470000000    -2.385000000
O    -9.275000000     3.063000000     4.094000000
H    -8.484000000     2.782000000     4.555000000
H    -8.994000000     3.185000000     3.188000000
O    -5.022000000     5.943000000     5.048000000
H    -5.527000000     5.310000000     5.557000000
H    -5.329000000     5.827000000     4.148000000
O    -8.746000000    -1.282000000     1.792000000
H    -8.110000000    -0.913000000     1.179000000
H    -8.467000000    -0.961000000     2.650000000
O    -5.959000000     0.816000000     3.039000000
H    -5.774000000     1.400000000     2.303000000
H    -6.913000000     0.735000000     3.047000000
O    -6.946000000     1.934000000     5.284000000
H    -7.393000000     1.384000000     5.927000000
H    -6.442000000     1.318000000     4.752000000
