218
-1481.64377
C    -2.163000000    -0.418000000     4.985000000
H    -1.325000000     0.189000000     5.316000000
C    -1.857000000    -1.527000000     4.215000000
C    -2.950000000    -2.171000000     3.594000000
H    -2.824000000    -2.959000000     2.856000000
C    -0.426000000    -1.941000000     3.849000000
O     0.451000000    -1.281000000     4.820000000
H    -0.253000000    -1.612000000     2.814000000
O    -0.277000000    -3.404000000     3.783000000
C     0.548000000    -3.816000000     2.670000000
C    -0.121000000    -4.362000000     1.573000000
H    -1.195000000    -4.507000000     1.656000000
C     0.479000000    -4.588000000     0.367000000
O    -0.264000000    -4.827000000    -0.756000000
C     1.915000000    -4.532000000     0.355000000
C     2.608000000    -4.809000000    -0.952000000
H     3.648000000    -5.129000000    -0.858000000
C     2.638000000    -3.597000000    -1.872000000
C     3.779000000    -2.753000000    -1.854000000
H     4.535000000    -2.937000000    -1.094000000
H     2.301000000    -5.754000000    -1.406000000
C     2.642000000    -4.127000000     1.464000000
H     3.728000000    -4.108000000     1.437000000
C     1.966000000    -3.749000000     2.638000000
C     2.626000000    -3.141000000     3.916000000
H     3.664000000    -3.422000000     4.109000000
H     2.140000000    -3.447000000     4.845000000
C     2.627000000    -1.670000000     3.915000000
C     3.698000000    -1.046000000     3.243000000
H     4.428000000    -1.686000000     2.755000000
C     1.616000000    -0.794000000     4.385000000
C     1.666000000     0.572000000     4.307000000
H     0.793000000     1.130000000     4.635000000
C     2.724000000     1.127000000     3.664000000
O     2.659000000     2.469000000     3.491000000
C     2.432000000     2.999000000     2.179000000
C     1.374000000     4.113000000     2.153000000
C     1.337000000     5.134000000     1.221000000
H     2.127000000     5.183000000     0.476000000
C     0.317000000     4.043000000     3.069000000
H     0.306000000     3.233000000     3.794000000
O     3.614000000     3.353000000     1.399000000
H     1.913000000     2.164000000     1.685000000
C     3.771000000     0.372000000     3.118000000
C     4.942000000     0.966000000     2.397000000
H     5.685000000     0.168000000     2.338000000
H     5.345000000     1.816000000     2.950000000
C     4.615000000     1.250000000     0.901000000
C     4.867000000     0.280000000    -0.036000000
H     5.238000000    -0.674000000     0.329000000
C     3.969000000     2.400000000     0.426000000
C     3.480000000     2.557000000    -0.880000000
H     2.975000000     3.503000000    -1.060000000
C     3.822000000     1.547000000    -1.784000000
O     3.322000000     1.812000000    -3.074000000
C     2.184000000     0.973000000    -3.640000000
C     1.238000000     1.842000000    -4.445000000
C     1.117000000     3.217000000    -4.102000000
H     1.919000000     3.656000000    -3.514000000
C     0.263000000     1.226000000    -5.171000000
H     0.383000000     0.162000000    -5.362000000
O     2.684000000    -0.172000000    -4.341000000
H     1.686000000     0.774000000    -2.679000000
C     4.480000000     0.404000000    -1.389000000
C     4.893000000    -0.569000000    -2.491000000
H     5.851000000    -1.053000000    -2.291000000
H     5.092000000    -0.121000000    -3.466000000
C     3.886000000    -1.632000000    -2.686000000
C     2.768000000    -1.350000000    -3.566000000
C     1.659000000    -2.228000000    -3.589000000
H     0.817000000    -2.072000000    -4.258000000
C     1.621000000    -3.383000000    -2.835000000
O     0.457000000    -4.174000000    -2.886000000
C    -0.467000000    -3.835000000    -1.793000000
H    -0.151000000    -2.898000000    -1.310000000
C    -1.929000000    -3.660000000    -2.206000000
C    -3.025000000    -3.992000000    -1.347000000
H    -2.797000000    -4.454000000    -0.389000000
C    -2.184000000    -3.270000000    -3.503000000
H    -1.369000000    -2.893000000    -4.116000000
C    -3.459000000    -3.103000000    -3.932000000
O    -3.795000000    -2.570000000    -5.146000000
C    -4.533000000    -3.573000000    -3.093000000
H    -5.540000000    -3.579000000    -3.502000000
C    -4.325000000    -3.947000000    -1.809000000
O    -5.320000000    -4.495000000    -1.095000000
C    -5.351000000    -4.502000000     0.271000000
C    -5.457000000    -3.392000000     1.137000000
H    -5.647000000    -2.461000000     0.609000000
C    -5.118000000    -5.785000000     0.861000000
H    -4.973000000    -6.667000000     0.243000000
C    -4.897000000    -5.963000000     2.170000000
H    -4.665000000    -6.925000000     2.619000000
C    -5.013000000    -4.809000000     3.004000000
H    -5.076000000    -4.847000000     4.089000000
C    -5.342000000    -3.559000000     2.505000000
O    -5.416000000    -2.402000000     3.310000000
C    -4.294000000    -1.757000000     3.784000000
C    -4.552000000    -0.706000000     4.641000000
H    -5.565000000    -0.391000000     4.878000000
C    -3.491000000    -0.015000000     5.164000000
O    -3.771000000     1.153000000     5.853000000
C    -2.941000000     2.247000000     6.009000000
C    -2.742000000     3.104000000     4.897000000
H    -3.151000000     2.794000000     3.939000000
C    -2.378000000     2.578000000     7.222000000
H    -2.533000000     1.915000000     8.069000000
C    -1.612000000     3.717000000     7.362000000
H    -1.024000000     3.776000000     8.275000000
C    -1.488000000     4.598000000     6.246000000
H    -0.831000000     5.464000000     6.256000000
C    -1.924000000     4.201000000     4.999000000
O    -1.777000000     4.945000000     3.925000000
C    -0.680000000     4.994000000     3.074000000
C    -0.706000000     6.041000000     2.092000000
H    -1.558000000     6.715000000     2.054000000
C     0.307000000     6.084000000     1.123000000
O     0.192000000     7.058000000     0.142000000
C     0.741000000     6.876000000    -1.084000000
C     0.130000000     5.969000000    -1.967000000
H    -0.731000000     5.375000000    -1.671000000
C     1.901000000     7.563000000    -1.433000000
H     2.374000000     8.202000000    -0.691000000
C     2.384000000     7.490000000    -2.689000000
H     3.241000000     8.113000000    -2.933000000
C     1.760000000     6.641000000    -3.627000000
H     2.057000000     6.686000000    -4.671000000
C     0.642000000     5.887000000    -3.273000000
O    -0.246000000     5.286000000    -4.165000000
C     0.020000000     4.003000000    -4.557000000
C    -0.815000000     3.370000000    -5.479000000
H    -1.609000000     3.901000000    -5.997000000
C    -0.701000000     2.001000000    -5.795000000
O    -1.510000000     1.424000000    -6.693000000
C    -1.780000000     0.116000000    -6.804000000
C    -1.511000000    -0.453000000    -7.997000000
H    -0.976000000     0.018000000    -8.817000000
C    -1.923000000    -1.747000000    -8.231000000
H    -1.587000000    -2.236000000    -9.141000000
C    -2.744000000    -2.451000000    -7.292000000
H    -3.145000000    -3.442000000    -7.489000000
C    -2.991000000    -1.890000000    -6.095000000
C    -2.522000000    -0.567000000    -5.841000000
H    -2.727000000    -0.103000000    -4.880000000
C    -2.661000000    -0.531000000     0.632000000
H    -3.520000000    -1.186000000     0.749000000
C    -1.370000000    -1.030000000     0.415000000
H    -1.220000000    -2.106000000     0.422000000
C    -0.281000000    -0.206000000     0.334000000
C     1.085000000    -0.642000000     0.182000000
H     0.965000000    -1.597000000    -0.335000000
H     1.722000000     0.016000000    -0.412000000
H     1.534000000    -0.882000000     1.148000000
C    -0.462000000     1.203000000     0.396000000
H     0.368000000     1.896000000     0.286000000
C    -1.716000000     1.743000000     0.668000000
H    -1.910000000     2.811000000     0.607000000
C    -2.814000000     0.865000000     0.802000000
C    -4.177000000     1.425000000     1.127000000
O    -4.326000000     2.605000000     1.304000000
O    -5.181000000     0.698000000     0.869000000
O    -9.234000000     3.005000000    -2.745000000
H    -8.295000000     2.887000000    -2.602000000
H    -9.446000000     2.401000000    -3.457000000
O    -7.732000000    -0.908000000    -1.379000000
H    -8.217000000    -0.105000000    -1.188000000
H    -6.885000000    -0.604000000    -1.704000000
O    -6.888000000     6.162000000     1.083000000
H    -7.138000000     5.388000000     0.578000000
H    -6.124000000     5.883000000     1.587000000
O    -6.830000000     3.078000000     0.262000000
H    -5.978000000     2.721000000     0.513000000
H    -7.053000000     2.619000000    -0.547000000
O    -4.646000000     4.660000000    -1.160000000
H    -4.553000000     4.538000000    -0.216000000
H    -5.400000000     4.121000000    -1.398000000
O    -8.548000000    -3.383000000    -0.288000000
H    -8.958000000    -3.758000000    -1.068000000
H    -8.096000000    -2.602000000    -0.608000000
O    -4.186000000     7.248000000    -2.119000000
H    -4.262000000     6.524000000    -1.499000000
H    -5.024000000     7.708000000    -2.055000000
O    -4.461000000     5.214000000     2.744000000
H    -4.707000000     4.323000000     2.493000000
H    -3.574000000     5.128000000     3.092000000
O    -4.944000000    -0.158000000    -1.740000000
H    -4.983000000     0.015000000    -0.800000000
H    -4.014000000    -0.092000000    -1.958000000
O    -6.745000000     5.040000000     4.512000000
H    -6.911000000     5.916000000     4.859000000
H    -6.263000000     5.191000000     3.699000000
O    -9.071000000     3.934000000     1.696000000
H    -9.011000000     3.567000000     2.578000000
H    -8.456000000     3.415000000     1.178000000
O    -5.472000000     2.934000000    -4.439000000
H    -4.683000000     3.347000000    -4.089000000
H    -5.234000000     2.677000000    -5.330000000
O    -2.297000000    -0.010000000    -2.341000000
H    -2.047000000    -0.310000000    -1.467000000
H    -2.221000000     0.943000000    -2.298000000
O    -2.220000000     2.887000000    -2.544000000
H    -1.454000000     3.322000000    -2.920000000
H    -2.937000000     3.507000000    -2.675000000
O    -9.581000000     0.676000000    -0.520000000
H    -9.773000000     1.529000000    -0.909000000
H    -9.627000000     0.828000000     0.424000000
O    -6.646000000     2.008000000    -2.346000000
H    -6.137000000     1.206000000    -2.229000000
H    -6.536000000     2.229000000    -3.271000000
O    -7.363000000     0.244000000     2.713000000
H    -6.718000000     0.389000000     2.021000000
H    -7.171000000    -0.635000000     3.040000000
O    -9.819000000     1.006000000     2.211000000
H   -10.267000000     1.606000000     2.808000000
H    -8.948000000     0.896000000     2.592000000
O    -8.621000000     2.670000000     4.180000000
H    -8.059000000     3.397000000     4.446000000
H    -8.016000000     2.012000000     3.838000000
