218
-1474.98316
C    -1.364000000     2.521000000     4.553000000
H    -0.386000000     2.933000000     4.319000000
C    -1.587000000     1.144000000     4.377000000
C    -2.917000000     0.734000000     4.296000000
H    -3.192000000    -0.286000000     4.039000000
C    -0.367000000     0.244000000     4.170000000
O     0.720000000     0.904000000     4.834000000
H    -0.113000000     0.163000000     3.103000000
O    -0.580000000    -1.063000000     4.652000000
C    -0.068000000    -2.168000000     4.034000000
C    -0.996000000    -3.054000000     3.476000000
H    -2.041000000    -2.792000000     3.622000000
C    -0.633000000    -4.008000000     2.541000000
O    -1.585000000    -4.545000000     1.701000000
C     0.733000000    -4.265000000     2.371000000
C     1.126000000    -5.365000000     1.336000000
H     2.021000000    -5.902000000     1.660000000
C     1.333000000    -4.686000000     0.021000000
C     2.575000000    -4.185000000    -0.310000000
H     3.442000000    -4.266000000     0.342000000
H     0.384000000    -6.151000000     1.181000000
C     1.692000000    -3.543000000     3.085000000
H     2.747000000    -3.705000000     2.878000000
C     1.257000000    -2.519000000     3.966000000
C     2.214000000    -1.681000000     4.753000000
H     3.080000000    -2.287000000     5.026000000
H     1.653000000    -1.372000000     5.637000000
C     2.643000000    -0.437000000     3.984000000
C     3.783000000    -0.492000000     3.153000000
H     4.440000000    -1.358000000     3.155000000
C     1.892000000     0.783000000     4.074000000
C     2.226000000     1.782000000     3.213000000
H     1.655000000     2.704000000     3.291000000
C     3.278000000     1.686000000     2.380000000
O     3.510000000     2.810000000     1.553000000
C     3.096000000     2.726000000     0.184000000
C     2.587000000     4.059000000    -0.264000000
C     2.746000000     4.542000000    -1.565000000
H     3.350000000     3.991000000    -2.281000000
C     1.618000000     4.695000000     0.538000000
H     1.428000000     4.157000000     1.464000000
O     4.197000000     2.177000000    -0.546000000
H     2.209000000     2.075000000     0.151000000
C     4.091000000     0.547000000     2.316000000
C     5.255000000     0.357000000     1.394000000
H     6.020000000    -0.317000000     1.787000000
H     5.813000000     1.293000000     1.330000000
C     4.748000000    -0.048000000     0.029000000
C     4.810000000    -1.433000000    -0.356000000
H     5.070000000    -2.201000000     0.369000000
C     4.313000000     0.905000000    -0.886000000
C     3.930000000     0.565000000    -2.183000000
H     3.547000000     1.289000000    -2.898000000
C     4.090000000    -0.769000000    -2.542000000
O     3.369000000    -1.032000000    -3.694000000
C     1.958000000    -1.359000000    -3.523000000
C     1.025000000    -0.733000000    -4.550000000
C     1.275000000     0.603000000    -4.975000000
H     2.126000000     1.136000000    -4.559000000
C    -0.172000000    -1.403000000    -4.912000000
H    -0.422000000    -2.396000000    -4.546000000
O     1.845000000    -2.792000000    -3.623000000
H     1.589000000    -1.070000000    -2.528000000
C     4.476000000    -1.747000000    -1.662000000
C     4.208000000    -3.190000000    -1.918000000
H     5.001000000    -3.807000000    -1.490000000
H     4.219000000    -3.399000000    -2.990000000
C     2.785000000    -3.706000000    -1.549000000
C     1.730000000    -3.500000000    -2.440000000
C     0.435000000    -3.870000000    -2.041000000
H    -0.391000000    -3.675000000    -2.719000000
C     0.257000000    -4.579000000    -0.864000000
O    -1.048000000    -4.936000000    -0.572000000
C    -1.766000000    -4.060000000     0.344000000
H    -1.273000000    -3.089000000     0.190000000
C    -3.153000000    -3.709000000    -0.054000000
C    -4.027000000    -3.086000000     0.827000000
H    -3.924000000    -3.054000000     1.909000000
C    -3.481000000    -3.860000000    -1.379000000
H    -2.775000000    -4.322000000    -2.064000000
C    -4.641000000    -3.321000000    -1.828000000
O    -5.008000000    -3.543000000    -3.189000000
C    -5.567000000    -2.720000000    -0.928000000
H    -6.527000000    -2.394000000    -1.321000000
C    -5.325000000    -2.694000000     0.435000000
O    -6.327000000    -2.274000000     1.295000000
C    -6.083000000    -1.819000000     2.558000000
C    -5.691000000    -0.519000000     2.809000000
H    -5.390000000     0.198000000     2.050000000
C    -6.518000000    -2.574000000     3.642000000
H    -6.922000000    -3.568000000     3.464000000
C    -6.443000000    -2.103000000     4.959000000
H    -6.879000000    -2.740000000     5.725000000
C    -6.132000000    -0.790000000     5.199000000
H    -5.972000000    -0.370000000     6.188000000
C    -5.734000000    -0.019000000     4.126000000
O    -5.260000000     1.270000000     4.355000000
C    -3.979000000     1.636000000     4.538000000
C    -3.684000000     3.000000000     4.758000000
H    -4.477000000     3.738000000     4.842000000
C    -2.373000000     3.444000000     4.751000000
O    -2.142000000     4.782000000     4.934000000
C    -1.073000000     5.449000000     4.393000000
C    -1.002000000     5.635000000     3.035000000
H    -1.723000000     5.147000000     2.383000000
C    -0.173000000     6.046000000     5.191000000
H    -0.366000000     5.978000000     6.259000000
C     0.905000000     6.802000000     4.726000000
H     1.619000000     7.322000000     5.359000000
C     1.010000000     6.958000000     3.339000000
H     1.718000000     7.733000000     3.058000000
C     0.091000000     6.327000000     2.459000000
O     0.094000000     6.505000000     1.035000000
C     0.920000000     5.815000000     0.117000000
C     1.147000000     6.249000000    -1.219000000
H     0.600000000     7.110000000    -1.593000000
C     2.009000000     5.591000000    -2.023000000
O     2.174000000     5.986000000    -3.301000000
C     2.316000000     5.167000000    -4.291000000
C     1.268000000     4.335000000    -4.750000000
H     0.305000000     4.478000000    -4.267000000
C     3.582000000     5.095000000    -4.937000000
H     4.466000000     5.588000000    -4.539000000
C     3.857000000     4.005000000    -5.803000000
H     4.857000000     3.915000000    -6.221000000
C     2.794000000     3.280000000    -6.309000000
H     2.913000000     2.675000000    -7.204000000
C     1.510000000     3.312000000    -5.708000000
O     0.523000000     2.550000000    -6.224000000
C     0.392000000     1.233000000    -5.839000000
C    -0.671000000     0.466000000    -6.350000000
H    -1.229000000     0.869000000    -7.192000000
C    -0.990000000    -0.850000000    -5.902000000
O    -2.135000000    -1.403000000    -6.313000000
C    -2.761000000    -2.531000000    -5.859000000
C    -2.606000000    -3.664000000    -6.574000000
H    -1.916000000    -3.652000000    -7.413000000
C    -3.319000000    -4.816000000    -6.229000000
H    -3.224000000    -5.731000000    -6.808000000
C    -4.047000000    -4.779000000    -5.009000000
H    -4.646000000    -5.642000000    -4.731000000
C    -4.142000000    -3.593000000    -4.240000000
C    -3.567000000    -2.424000000    -4.719000000
H    -3.734000000    -1.449000000    -4.269000000
C    -2.207000000     1.457000000     0.141000000
H    -3.232000000     1.446000000     0.502000000
C    -1.291000000     0.519000000     0.577000000
H    -1.461000000    -0.157000000     1.412000000
C     0.010000000     0.514000000     0.007000000
C     1.059000000    -0.470000000     0.339000000
H     0.728000000    -1.509000000     0.401000000
H     1.915000000    -0.483000000    -0.339000000
H     1.561000000    -0.110000000     1.240000000
C     0.209000000     1.443000000    -1.082000000
H     1.172000000     1.449000000    -1.585000000
C    -0.726000000     2.343000000    -1.538000000
H    -0.537000000     3.056000000    -2.337000000
C    -1.930000000     2.363000000    -0.880000000
C    -2.982000000     3.270000000    -1.322000000
O    -2.977000000     3.555000000    -2.512000000
O    -3.896000000     3.535000000    -0.611000000
O    -4.491000000     6.922000000     2.755000000
H    -4.538000000     6.119000000     2.236000000
H    -4.304000000     6.621000000     3.645000000
O    -6.119000000     9.034000000    -2.474000000
H    -6.940000000     9.245000000    -2.918000000
H    -6.317000000     8.250000000    -1.963000000
O    -2.701000000     1.141000000    -3.673000000
H    -2.854000000     2.046000000    -3.403000000
H    -1.753000000     1.027000000    -3.607000000
O    -8.787000000     3.225000000    -2.525000000
H    -8.686000000     2.512000000    -1.895000000
H    -7.904000000     3.579000000    -2.629000000
O    -3.661000000     6.332000000    -0.846000000
H    -4.601000000     6.254000000    -1.013000000
H    -3.357000000     5.428000000    -0.767000000
O    -7.662000000     6.662000000    -4.356000000
H    -7.181000000     5.895000000    -4.043000000
H    -8.550000000     6.340000000    -4.511000000
O    -8.045000000     1.518000000     0.540000000
H    -7.224000000     1.521000000     0.047000000
H    -8.414000000     0.649000000     0.385000000
O    -5.124000000     1.387000000    -5.366000000
H    -4.293000000     1.319000000    -4.897000000
H    -4.912000000     1.140000000    -6.267000000
O    -6.706000000     6.244000000    -0.653000000
H    -6.598000000     5.571000000    -1.325000000
H    -7.618000000     6.162000000    -0.375000000
O    -6.233000000     8.466000000     0.876000000
H    -5.737000000     8.335000000     1.684000000
H    -6.489000000     7.584000000     0.606000000
O    -2.173000000     6.169000000    -3.260000000
H    -2.317000000     5.280000000    -2.935000000
H    -2.352000000     6.732000000    -2.506000000
O    -4.810000000     4.420000000     1.761000000
H    -5.566000000     3.894000000     2.022000000
H    -4.529000000     4.040000000     0.929000000
O    -2.613000000     8.002000000     1.056000000
H    -3.014000000     7.451000000     0.384000000
H    -3.155000000     7.865000000     1.833000000
O    -5.494000000     1.129000000    -0.428000000
H    -4.978000000     1.892000000    -0.687000000
H    -5.440000000     0.537000000    -1.179000000
O    -7.522000000     3.382000000     2.604000000
H    -7.702000000     2.596000000     2.088000000
H    -7.559000000     3.084000000     3.513000000
O    -6.009000000     4.425000000    -2.522000000
H    -5.170000000     4.143000000    -2.159000000
H    -5.870000000     4.432000000    -3.469000000
O    -6.261000000     0.393000000    -3.147000000
H    -7.149000000     0.209000000    -3.453000000
H    -5.828000000     0.799000000    -3.899000000
O    -3.457000000     5.539000000    -5.612000000
H    -3.931000000     6.280000000    -5.235000000
H    -2.813000000     5.302000000    -4.945000000
O    -5.824000000     4.282000000    -5.157000000
H    -5.714000000     3.341000000    -5.290000000
H    -4.988000000     4.662000000    -5.427000000
