218
-1476.01136
C    -1.393000000     2.618000000     4.529000000
H    -0.429000000     3.090000000     4.358000000
C    -1.501000000     1.248000000     4.632000000
C    -2.757000000     0.644000000     4.829000000
H    -2.847000000    -0.437000000     4.887000000
C    -0.264000000     0.400000000     4.393000000
O     0.921000000     1.022000000     4.896000000
H    -0.129000000     0.435000000     3.302000000
O    -0.414000000    -0.935000000     5.010000000
C    -0.027000000    -2.003000000     4.251000000
C    -1.054000000    -2.651000000     3.592000000
H    -1.999000000    -2.146000000     3.774000000
C    -0.765000000    -3.681000000     2.671000000
O    -1.716000000    -4.319000000     1.827000000
C     0.585000000    -4.062000000     2.548000000
C     0.945000000    -5.197000000     1.616000000
H     1.905000000    -5.601000000     1.945000000
C     1.142000000    -4.767000000     0.159000000
C     2.414000000    -4.210000000    -0.146000000
H     3.142000000    -4.221000000     0.661000000
H     0.272000000    -6.040000000     1.787000000
C     1.625000000    -3.332000000     3.201000000
H     2.654000000    -3.681000000     3.161000000
C     1.295000000    -2.299000000     4.097000000
C     2.288000000    -1.514000000     4.900000000
H     3.186000000    -2.135000000     4.895000000
H     2.021000000    -1.171000000     5.901000000
C     2.697000000    -0.317000000     4.037000000
C     3.731000000    -0.480000000     3.136000000
H     4.284000000    -1.416000000     3.164000000
C     2.020000000     0.872000000     4.106000000
C     2.467000000     1.961000000     3.296000000
H     1.960000000     2.922000000     3.262000000
C     3.461000000     1.782000000     2.365000000
O     3.689000000     2.847000000     1.515000000
C     3.320000000     2.674000000     0.124000000
C     2.740000000     3.938000000    -0.364000000
C     2.729000000     4.272000000    -1.722000000
H     3.423000000     3.807000000    -2.418000000
C     1.848000000     4.596000000     0.492000000
H     1.693000000     4.224000000     1.501000000
O     4.376000000     2.169000000    -0.715000000
H     2.515000000     1.925000000     0.126000000
C     4.141000000     0.538000000     2.292000000
C     5.348000000     0.347000000     1.388000000
H     6.158000000    -0.292000000     1.747000000
H     5.809000000     1.316000000     1.187000000
C     4.798000000    -0.100000000    -0.032000000
C     4.666000000    -1.438000000    -0.317000000
H     5.001000000    -2.179000000     0.405000000
C     4.441000000     0.811000000    -1.020000000
C     4.042000000     0.425000000    -2.305000000
H     3.785000000     1.191000000    -3.032000000
C     3.818000000    -0.912000000    -2.574000000
O     3.223000000    -1.399000000    -3.700000000
C     1.788000000    -1.662000000    -3.483000000
C     0.986000000    -1.018000000    -4.552000000
C     1.437000000     0.165000000    -5.088000000
H     2.482000000     0.437000000    -4.963000000
C    -0.311000000    -1.415000000    -4.764000000
H    -0.690000000    -2.299000000    -4.258000000
O     1.760000000    -3.119000000    -3.640000000
H     1.542000000    -1.200000000    -2.515000000
C     4.134000000    -1.871000000    -1.550000000
C     4.044000000    -3.369000000    -1.794000000
H     4.743000000    -3.916000000    -1.158000000
H     4.312000000    -3.546000000    -2.838000000
C     2.680000000    -3.806000000    -1.465000000
C     1.671000000    -3.871000000    -2.451000000
C     0.401000000    -4.325000000    -2.012000000
H    -0.430000000    -4.187000000    -2.699000000
C     0.181000000    -4.794000000    -0.766000000
O    -1.114000000    -4.933000000    -0.388000000
C    -1.680000000    -3.891000000     0.469000000
H    -0.989000000    -3.036000000     0.451000000
C    -3.127000000    -3.475000000    -0.046000000
C    -3.934000000    -2.639000000     0.728000000
H    -3.639000000    -2.257000000     1.702000000
C    -3.493000000    -3.864000000    -1.353000000
H    -2.838000000    -4.556000000    -1.876000000
C    -4.736000000    -3.397000000    -1.819000000
O    -5.173000000    -3.787000000    -3.046000000
C    -5.511000000    -2.548000000    -1.018000000
H    -6.433000000    -2.154000000    -1.439000000
C    -5.178000000    -2.170000000     0.234000000
O    -5.840000000    -1.138000000     0.865000000
C    -6.091000000    -1.104000000     2.196000000
C    -5.458000000    -0.112000000     2.924000000
H    -4.650000000     0.509000000     2.545000000
C    -7.107000000    -1.885000000     2.744000000
H    -7.698000000    -2.518000000     2.087000000
C    -7.362000000    -1.836000000     4.081000000
H    -8.274000000    -2.321000000     4.420000000
C    -6.631000000    -0.882000000     4.825000000
H    -6.825000000    -0.744000000     5.885000000
C    -5.671000000     0.000000000     4.310000000
O    -5.121000000     0.990000000     5.134000000
C    -3.891000000     1.473000000     5.040000000
C    -3.702000000     2.881000000     5.127000000
H    -4.561000000     3.547000000     5.154000000
C    -2.496000000     3.455000000     4.689000000
O    -2.304000000     4.786000000     4.683000000
C    -1.252000000     5.491000000     4.156000000
C    -1.248000000     5.730000000     2.809000000
H    -2.179000000     5.502000000     2.296000000
C    -0.137000000     5.905000000     4.941000000
H    -0.113000000     5.981000000     6.025000000
C     1.003000000     6.310000000     4.320000000
H     1.875000000     6.513000000     4.936000000
C     1.029000000     6.671000000     2.931000000
H     1.931000000     7.080000000     2.484000000
C    -0.077000000     6.184000000     2.167000000
O     0.041000000     6.201000000     0.790000000
C     1.022000000     5.650000000     0.013000000
C     1.111000000     6.027000000    -1.311000000
H     0.538000000     6.864000000    -1.702000000
C     1.943000000     5.308000000    -2.212000000
O     2.001000000     5.748000000    -3.541000000
C     2.389000000     4.889000000    -4.519000000
C     1.479000000     4.040000000    -5.099000000
H     0.469000000     4.019000000    -4.699000000
C     3.720000000     4.811000000    -4.955000000
H     4.406000000     5.470000000    -4.428000000
C     4.154000000     3.770000000    -5.792000000
H     5.155000000     3.672000000    -6.204000000
C     3.244000000     2.909000000    -6.310000000
H     3.479000000     2.110000000    -7.007000000
C     1.919000000     3.054000000    -5.974000000
O     0.996000000     2.155000000    -6.477000000
C     0.637000000     0.943000000    -5.925000000
C    -0.655000000     0.520000000    -6.177000000
H    -1.284000000     1.182000000    -6.767000000
C    -1.061000000    -0.682000000    -5.617000000
O    -2.431000000    -0.947000000    -5.886000000
C    -3.014000000    -2.187000000    -5.638000000
C    -2.673000000    -3.349000000    -6.377000000
H    -1.934000000    -3.375000000    -7.173000000
C    -3.180000000    -4.633000000    -6.061000000
H    -2.994000000    -5.497000000    -6.695000000
C    -3.989000000    -4.756000000    -4.924000000
H    -4.435000000    -5.726000000    -4.716000000
C    -4.372000000    -3.606000000    -4.184000000
C    -3.882000000    -2.308000000    -4.516000000
H    -4.149000000    -1.448000000    -3.907000000
C    -2.371000000     0.395000000    -1.521000000
H    -3.452000000     0.364000000    -1.623000000
C    -1.601000000    -0.235000000    -0.528000000
H    -2.125000000    -0.941000000     0.112000000
C    -0.251000000     0.040000000    -0.377000000
C     0.591000000    -0.677000000     0.714000000
H     1.123000000    -1.585000000     0.424000000
H     1.391000000    -0.069000000     1.143000000
H    -0.014000000    -1.013000000     1.559000000
C     0.343000000     0.865000000    -1.368000000
H     1.422000000     0.966000000    -1.278000000
C    -0.396000000     1.518000000    -2.307000000
H     0.199000000     2.110000000    -2.998000000
C    -1.809000000     1.284000000    -2.425000000
C    -2.597000000     2.017000000    -3.492000000
O    -2.001000000     2.870000000    -4.109000000
O    -3.795000000     1.861000000    -3.672000000
O    -7.645000000     4.384000000    -1.288000000
H    -6.777000000     4.774000000    -1.181000000
H    -7.725000000     4.235000000    -2.231000000
O    -2.314000000     5.608000000    -0.657000000
H    -1.635000000     5.002000000    -0.361000000
H    -1.961000000     6.476000000    -0.467000000
O    -1.280000000     3.609000000    -9.000000000
H    -1.595000000     4.470000000    -9.273000000
H    -1.825000000     3.383000000    -8.246000000
O    -0.977000000     2.863000000     0.427000000
H    -0.559000000     2.092000000     0.811000000
H    -0.634000000     2.903000000    -0.465000000
O    -7.503000000     6.172000000    -4.732000000
H    -6.711000000     5.717000000    -5.018000000
H    -7.886000000     5.595000000    -4.072000000
O    -7.892000000    -1.141000000    -3.160000000
H    -8.016000000    -1.414000000    -4.068000000
H    -7.195000000    -0.486000000    -3.199000000
O    -5.126000000     4.181000000    -3.786000000
H    -5.070000000     4.578000000    -2.917000000
H    -4.678000000     3.340000000    -3.694000000
O    -4.876000000     4.654000000    -1.156000000
H    -4.080000000     5.181000000    -1.097000000
H    -4.709000000     3.903000000    -0.586000000
O    -0.444000000     7.793000000    -4.324000000
H    -0.862000000     6.953000000    -4.136000000
H     0.408000000     7.739000000    -3.890000000
O    -6.957000000     0.620000000    -6.492000000
H    -7.093000000     0.761000000    -5.555000000
H    -6.066000000     0.931000000    -6.654000000
O    -7.466000000     1.528000000    -1.059000000
H    -7.462000000     1.108000000    -0.199000000
H    -7.616000000     2.455000000    -0.873000000
O    -2.591000000     3.973000000    -6.559000000
H    -2.489000000     3.390000000    -5.806000000
H    -2.046000000     4.732000000    -6.348000000
O    -1.864000000     5.483000000    -3.529000000
H    -2.076000000     4.630000000    -3.910000000
H    -2.113000000     5.401000000    -2.608000000
O    -5.477000000     3.714000000    -9.266000000
H    -4.916000000     3.896000000    -8.512000000
H    -6.296000000     4.171000000    -9.071000000
O    -0.990000000     6.257000000    -6.825000000
H    -0.986000000     7.169000000    -6.532000000
H    -1.080000000     6.312000000    -7.776000000
O    -6.342000000     1.021000000    -3.838000000
H    -6.588000000     1.371000000    -2.982000000
H    -5.398000000     1.166000000    -3.894000000
O    -4.224000000     1.813000000    -6.480000000
H    -4.274000000     1.921000000    -5.530000000
H    -3.712000000     2.564000000    -6.779000000
O    -3.990000000     2.650000000     0.369000000
H    -3.044000000     2.606000000     0.231000000
H    -4.332000000     1.866000000    -0.062000000
O    -4.815000000     5.725000000    -5.940000000
H    -4.708000000     5.368000000    -5.058000000
H    -4.370000000     5.096000000    -6.508000000
