218
-1479.07550
C     0.341000000     2.538000000     4.732000000
H     0.979000000     2.933000000     3.946000000
C     0.211000000     1.187000000     4.925000000
C    -0.853000000     0.651000000     5.646000000
H    -0.995000000    -0.424000000     5.734000000
C     1.167000000     0.292000000     4.224000000
O     2.435000000     0.907000000     4.174000000
H     0.770000000     0.214000000     3.201000000
O     1.260000000    -0.971000000     4.831000000
C     1.424000000    -2.121000000     4.068000000
C     0.274000000    -2.806000000     3.717000000
H    -0.681000000    -2.642000000     4.209000000
C     0.359000000    -3.875000000     2.786000000
O    -0.835000000    -4.385000000     2.390000000
C     1.552000000    -4.308000000     2.236000000
C     1.659000000    -5.334000000     1.112000000
H     2.585000000    -5.912000000     1.096000000
C     1.437000000    -4.696000000    -0.270000000
C     2.456000000    -4.366000000    -1.145000000
H     3.491000000    -4.509000000    -0.847000000
H     0.993000000    -6.191000000     1.234000000
C     2.765000000    -3.665000000     2.652000000
H     3.743000000    -3.977000000     2.297000000
C     2.654000000    -2.530000000     3.501000000
C     3.930000000    -1.647000000     3.682000000
H     4.868000000    -2.183000000     3.526000000
H     3.893000000    -1.333000000     4.727000000
C     3.828000000    -0.489000000     2.739000000
C     4.395000000    -0.562000000     1.520000000
H     4.784000000    -1.521000000     1.187000000
C     3.161000000     0.767000000     3.024000000
C     3.298000000     1.874000000     2.140000000
H     2.731000000     2.791000000     2.276000000
C     4.038000000     1.748000000     1.002000000
O     3.928000000     2.712000000     0.052000000
C     3.025000000     2.522000000    -1.114000000
C     2.196000000     3.753000000    -1.303000000
C     1.804000000     4.146000000    -2.602000000
H     2.265000000     3.555000000    -3.389000000
C     1.653000000     4.442000000    -0.203000000
H     1.911000000     4.162000000     0.815000000
O     3.855000000     2.232000000    -2.217000000
H     2.406000000     1.680000000    -0.769000000
C     4.618000000     0.577000000     0.690000000
C     5.469000000     0.405000000    -0.582000000
H     6.309000000    -0.276000000    -0.428000000
H     5.959000000     1.326000000    -0.904000000
C     4.545000000    -0.045000000    -1.759000000
C     4.323000000    -1.362000000    -2.089000000
H     4.912000000    -2.084000000    -1.529000000
C     3.875000000     0.892000000    -2.534000000
C     2.962000000     0.486000000    -3.499000000
H     2.281000000     1.176000000    -3.991000000
C     2.759000000    -0.828000000    -3.853000000
O     1.693000000    -1.192000000    -4.696000000
C     0.498000000    -1.452000000    -3.990000000
C    -0.655000000    -0.721000000    -4.654000000
C    -0.484000000     0.435000000    -5.435000000
H     0.534000000     0.799000000    -5.544000000
C    -1.957000000    -1.161000000    -4.385000000
H    -2.002000000    -2.080000000    -3.806000000
O     0.391000000    -2.895000000    -3.944000000
H     0.613000000    -1.009000000    -2.989000000
C     3.517000000    -1.805000000    -3.157000000
C     3.312000000    -3.292000000    -3.358000000
H     4.215000000    -3.905000000    -3.312000000
H     2.955000000    -3.461000000    -4.377000000
C     2.201000000    -3.765000000    -2.387000000
C     0.831000000    -3.532000000    -2.770000000
C    -0.192000000    -3.853000000    -1.873000000
H    -1.231000000    -3.583000000    -2.041000000
C     0.132000000    -4.313000000    -0.624000000
O    -0.973000000    -4.637000000     0.059000000
C    -1.390000000    -3.803000000     1.169000000
H    -0.986000000    -2.782000000     1.105000000
C    -2.922000000    -3.504000000     1.231000000
C    -3.392000000    -2.761000000     2.296000000
H    -2.686000000    -2.458000000     3.066000000
C    -3.645000000    -3.732000000     0.096000000
H    -3.240000000    -4.311000000    -0.730000000
C    -4.938000000    -3.223000000     0.074000000
O    -5.781000000    -3.468000000    -0.934000000
C    -5.447000000    -2.437000000     1.113000000
H    -6.471000000    -2.099000000     0.978000000
C    -4.663000000    -2.231000000     2.262000000
O    -5.055000000    -1.330000000     3.249000000
C    -4.637000000    -1.314000000     4.534000000
C    -3.925000000    -0.144000000     4.971000000
H    -3.700000000     0.662000000     4.277000000
C    -5.042000000    -2.244000000     5.491000000
H    -5.709000000    -3.051000000     5.200000000
C    -4.489000000    -2.256000000     6.763000000
H    -4.781000000    -2.945000000     7.552000000
C    -3.802000000    -1.142000000     7.110000000
H    -3.373000000    -1.022000000     8.102000000
C    -3.595000000    -0.075000000     6.314000000
O    -2.982000000     1.044000000     6.790000000
C    -1.810000000     1.517000000     6.108000000
C    -1.612000000     2.891000000     6.166000000
H    -2.415000000     3.491000000     6.587000000
C    -0.545000000     3.391000000     5.462000000
O    -0.394000000     4.773000000     5.395000000
C     0.150000000     5.512000000     4.302000000
C    -0.338000000     5.413000000     3.033000000
H    -1.089000000     4.654000000     2.832000000
C     1.214000000     6.377000000     4.554000000
H     1.646000000     6.460000000     5.548000000
C     1.892000000     7.063000000     3.512000000
H     2.791000000     7.656000000     3.659000000
C     1.429000000     6.888000000     2.221000000
H     1.849000000     7.399000000     1.359000000
C     0.327000000     6.089000000     1.961000000
O    -0.160000000     5.935000000     0.675000000
C     0.625000000     5.384000000    -0.400000000
C     0.156000000     5.733000000    -1.650000000
H    -0.623000000     6.461000000    -1.863000000
C     0.809000000     5.147000000    -2.707000000
O     0.325000000     5.536000000    -3.925000000
C     0.401000000     4.770000000    -5.081000000
C    -0.553000000     3.716000000    -5.392000000
H    -1.266000000     3.380000000    -4.643000000
C     1.362000000     5.112000000    -6.039000000
H     1.958000000     6.012000000    -5.911000000
C     1.337000000     4.402000000    -7.236000000
H     2.044000000     4.697000000    -8.006000000
C     0.417000000     3.379000000    -7.501000000
H     0.419000000     2.934000000    -8.493000000
C    -0.529000000     3.031000000    -6.584000000
O    -1.412000000     2.108000000    -6.945000000
C    -1.557000000     1.009000000    -6.110000000
C    -2.875000000     0.628000000    -5.840000000
H    -3.768000000     1.065000000    -6.279000000
C    -3.088000000    -0.557000000    -5.076000000
O    -4.340000000    -1.079000000    -4.926000000
C    -4.697000000    -2.316000000    -4.267000000
C    -4.294000000    -3.524000000    -4.835000000
H    -3.795000000    -3.575000000    -5.799000000
C    -4.616000000    -4.720000000    -4.136000000
H    -4.407000000    -5.685000000    -4.589000000
C    -5.233000000    -4.645000000    -2.898000000
H    -5.328000000    -5.564000000    -2.325000000
C    -5.503000000    -3.468000000    -2.261000000
C    -5.271000000    -2.357000000    -2.981000000
H    -5.496000000    -1.391000000    -2.535000000
C    -3.032000000     0.658000000    -0.521000000
H    -4.057000000     0.435000000    -0.237000000
C    -1.981000000    -0.001000000     0.170000000
H    -2.248000000    -0.663000000     0.989000000
C    -0.704000000     0.097000000    -0.376000000
C     0.412000000    -0.606000000     0.272000000
H     0.402000000    -0.452000000     1.353000000
H     0.472000000    -1.682000000     0.096000000
H     1.356000000    -0.190000000    -0.087000000
C    -0.467000000     0.831000000    -1.560000000
H     0.524000000     0.702000000    -1.989000000
C    -1.484000000     1.551000000    -2.172000000
H    -1.209000000     2.280000000    -2.930000000
C    -2.789000000     1.436000000    -1.680000000
C    -3.928000000     2.394000000    -2.120000000
O    -3.702000000     3.267000000    -2.850000000
O    -5.102000000     2.144000000    -1.875000000
O    -9.037000000     2.104000000    -1.529000000
H    -8.450000000     1.454000000    -1.143000000
H    -9.838000000     2.042000000    -1.008000000
O    -4.448000000     5.563000000     3.397000000
H    -4.448000000     5.722000000     2.453000000
H    -5.352000000     5.320000000     3.598000000
O    -2.519000000     7.612000000     0.869000000
H    -2.927000000     7.772000000     0.019000000
H    -1.843000000     6.957000000     0.691000000
O    -2.260000000     3.248000000     1.113000000
H    -1.955000000     2.343000000     1.062000000
H    -2.118000000     3.599000000     0.233000000
O    -5.836000000     3.323000000    -5.913000000
H    -6.068000000     2.499000000    -5.485000000
H    -5.415000000     3.840000000    -5.225000000
O    -3.599000000     5.288000000    -7.414000000
H    -3.658000000     6.240000000    -7.334000000
H    -3.696000000     4.966000000    -6.518000000
O    -5.408000000     4.868000000     0.681000000
H    -6.083000000     4.922000000     0.004000000
H    -4.616000000     5.200000000     0.256000000
O    -6.722000000     0.880000000    -0.293000000
H    -6.163000000     1.265000000    -0.968000000
H    -6.281000000     1.088000000     0.531000000
O    -5.365000000     2.156000000     1.528000000
H    -4.636000000     2.133000000     2.149000000
H    -5.403000000     3.068000000     1.238000000
O    -3.390000000     5.028000000    -4.629000000
H    -3.532000000     4.290000000    -4.035000000
H    -2.559000000     5.408000000    -4.344000000
O    -3.489000000     5.231000000    -1.116000000
H    -3.217000000     5.883000000    -1.761000000
H    -4.038000000     4.621000000    -1.609000000
O    -4.829000000     8.107000000    -4.453000000
H    -4.563000000     7.963000000    -5.361000000
H    -5.111000000     7.245000000    -4.146000000
O    -2.796000000     7.725000000    -2.416000000
H    -1.982000000     8.068000000    -2.785000000
H    -3.451000000     7.881000000    -3.096000000
O    -6.367000000     7.589000000    -0.498000000
H    -7.293000000     7.657000000    -0.266000000
H    -5.902000000     7.881000000     0.286000000
O    -5.962000000     1.259000000    -4.349000000
H    -5.628000000     0.390000000    -4.574000000
H    -5.652000000     1.411000000    -3.456000000
O    -9.322000000     5.581000000    -1.216000000
H    -8.997000000     4.746000000    -1.552000000
H    -9.224000000     6.189000000    -1.948000000
O    -6.507000000     6.250000000    -3.031000000
H    -6.447000000     5.338000000    -2.746000000
H    -6.282000000     6.759000000    -2.253000000
O    -6.860000000     4.081000000    -1.662000000
H    -6.028000000     3.626000000    -1.794000000
H    -7.520000000     3.388000000    -1.694000000
O    -3.390000000     2.901000000     3.508000000
H    -3.376000000     3.764000000     3.921000000
H    -2.904000000     3.019000000     2.692000000
