218
-1460.02167
C     0.320000000     2.711000000     4.354000000
H     1.060000000     3.081000000     3.649000000
C     0.353000000     1.336000000     4.671000000
C    -0.656000000     0.909000000     5.537000000
H    -0.862000000    -0.118000000     5.829000000
C     1.359000000     0.389000000     4.062000000
O     2.677000000     0.874000000     4.346000000
H     1.130000000     0.284000000     2.991000000
O     1.200000000    -0.944000000     4.720000000
C     1.311000000    -2.050000000     3.973000000
C     0.123000000    -2.592000000     3.628000000
H    -0.777000000    -2.226000000     4.115000000
C     0.026000000    -3.664000000     2.780000000
O    -1.177000000    -4.153000000     2.380000000
C     1.219000000    -4.082000000     2.159000000
C     1.151000000    -5.271000000     1.144000000
H     2.116000000    -5.780000000     1.192000000
C     0.918000000    -4.770000000    -0.308000000
C     1.971000000    -4.401000000    -1.052000000
H     2.942000000    -4.595000000    -0.602000000
H     0.384000000    -5.938000000     1.543000000
C     2.440000000    -3.523000000     2.409000000
H     3.358000000    -3.841000000     1.920000000
C     2.485000000    -2.474000000     3.324000000
C     3.897000000    -1.868000000     3.705000000
H     4.774000000    -2.502000000     3.561000000
H     3.911000000    -1.464000000     4.719000000
C     4.085000000    -0.565000000     2.940000000
C     4.715000000    -0.669000000     1.724000000
H     5.178000000    -1.616000000     1.459000000
C     3.528000000     0.665000000     3.242000000
C     3.632000000     1.692000000     2.312000000
H     3.214000000     2.676000000     2.511000000
C     4.149000000     1.502000000     1.067000000
O     4.100000000     2.540000000     0.207000000
C     3.338000000     2.320000000    -1.061000000
C     2.493000000     3.533000000    -1.420000000
C     2.311000000     3.925000000    -2.778000000
H     2.891000000     3.398000000    -3.531000000
C     1.890000000     4.380000000    -0.398000000
H     1.977000000     4.078000000     0.642000000
O     4.192000000     1.933000000    -2.152000000
H     2.648000000     1.492000000    -0.844000000
C     4.743000000     0.311000000     0.757000000
C     5.506000000     0.054000000    -0.543000000
H     6.218000000    -0.753000000    -0.354000000
H     6.090000000     0.940000000    -0.803000000
C     4.587000000    -0.387000000    -1.689000000
C     4.260000000    -1.775000000    -1.989000000
H     4.658000000    -2.544000000    -1.331000000
C     4.060000000     0.598000000    -2.556000000
C     3.179000000     0.273000000    -3.522000000
H     2.714000000     1.061000000    -4.109000000
C     2.846000000    -1.015000000    -3.777000000
O     1.645000000    -1.085000000    -4.484000000
C     0.371000000    -1.396000000    -3.809000000
C    -0.790000000    -0.675000000    -4.610000000
C    -0.647000000     0.318000000    -5.524000000
H     0.346000000     0.625000000    -5.841000000
C    -2.080000000    -1.005000000    -4.198000000
H    -2.341000000    -1.749000000    -3.451000000
O     0.152000000    -2.822000000    -3.906000000
H     0.437000000    -1.152000000    -2.739000000
C     3.385000000    -2.096000000    -3.052000000
C     3.039000000    -3.535000000    -3.129000000
H     3.901000000    -4.185000000    -2.966000000
H     2.825000000    -3.726000000    -4.183000000
C     1.801000000    -3.839000000    -2.306000000
C     0.489000000    -3.574000000    -2.817000000
C    -0.569000000    -3.983000000    -2.033000000
H    -1.600000000    -3.715000000    -2.250000000
C    -0.407000000    -4.434000000    -0.733000000
O    -1.487000000    -4.487000000     0.099000000
C    -1.675000000    -3.563000000     1.190000000
H    -1.133000000    -2.648000000     0.909000000
C    -3.159000000    -3.191000000     1.376000000
C    -3.691000000    -2.542000000     2.539000000
H    -3.092000000    -2.379000000     3.431000000
C    -4.069000000    -3.415000000     0.323000000
H    -3.798000000    -3.995000000    -0.556000000
C    -5.430000000    -2.966000000     0.407000000
O    -6.283000000    -3.307000000    -0.604000000
C    -5.941000000    -2.381000000     1.564000000
H    -6.964000000    -2.020000000     1.634000000
C    -5.085000000    -2.186000000     2.658000000
O    -5.563000000    -1.482000000     3.742000000
C    -4.829000000    -1.289000000     4.890000000
C    -4.136000000    -0.114000000     5.125000000
H    -4.145000000     0.659000000     4.361000000
C    -4.780000000    -2.295000000     5.902000000
H    -5.268000000    -3.251000000     5.730000000
C    -4.104000000    -2.062000000     7.156000000
H    -4.114000000    -2.867000000     7.886000000
C    -3.389000000    -0.864000000     7.313000000
H    -2.792000000    -0.752000000     8.215000000
C    -3.460000000     0.117000000     6.337000000
O    -2.676000000     1.212000000     6.646000000
C    -1.694000000     1.747000000     5.927000000
C    -1.563000000     3.120000000     5.737000000
H    -2.319000000     3.809000000     6.106000000
C    -0.545000000     3.597000000     4.959000000
O    -0.547000000     4.951000000     4.667000000
C     0.256000000     5.534000000     3.768000000
C    -0.147000000     5.815000000     2.468000000
H    -1.149000000     5.739000000     2.055000000
C     1.580000000     5.790000000     4.080000000
H     1.954000000     5.497000000     5.057000000
C     2.457000000     6.385000000     3.232000000
H     3.474000000     6.562000000     3.571000000
C     2.078000000     6.542000000     1.892000000
H     2.682000000     7.046000000     1.142000000
C     0.803000000     6.216000000     1.540000000
O     0.475000000     6.265000000     0.179000000
C     1.095000000     5.513000000    -0.745000000
C     0.902000000     5.731000000    -2.114000000
H     0.519000000     6.720000000    -2.355000000
C     1.450000000     4.956000000    -3.120000000
O     1.244000000     5.325000000    -4.434000000
C     1.046000000     4.353000000    -5.457000000
C    -0.192000000     3.638000000    -5.612000000
H    -0.949000000     3.549000000    -4.836000000
C     1.929000000     4.399000000    -6.498000000
H     2.837000000     4.984000000    -6.373000000
C     1.646000000     3.747000000    -7.724000000
H     2.333000000     3.775000000    -8.566000000
C     0.486000000     3.023000000    -7.915000000
H     0.329000000     2.461000000    -8.832000000
C    -0.390000000     2.962000000    -6.796000000
O    -1.516000000     2.158000000    -6.826000000
C    -1.673000000     1.129000000    -5.902000000
C    -2.965000000     0.872000000    -5.414000000
H    -3.841000000     1.389000000    -5.797000000
C    -3.146000000    -0.139000000    -4.521000000
O    -4.433000000    -0.517000000    -4.121000000
C    -4.878000000    -1.786000000    -3.602000000
C    -5.092000000    -2.815000000    -4.505000000
H    -4.745000000    -2.749000000    -5.533000000
C    -5.465000000    -4.085000000    -4.051000000
H    -5.443000000    -4.931000000    -4.732000000
C    -5.898000000    -4.224000000    -2.730000000
H    -6.303000000    -5.213000000    -2.533000000
C    -5.816000000    -3.151000000    -1.885000000
C    -5.326000000    -1.889000000    -2.292000000
H    -5.266000000    -1.102000000    -1.545000000
C    -3.294000000     0.775000000    -0.804000000
H    -4.271000000     0.420000000    -0.485000000
C    -2.162000000     0.168000000    -0.266000000
H    -2.293000000    -0.595000000     0.498000000
C    -0.965000000     0.665000000    -0.726000000
C     0.336000000     0.303000000    -0.059000000
H     0.712000000     1.189000000     0.457000000
H     0.073000000    -0.429000000     0.707000000
H     1.008000000    -0.152000000    -0.789000000
C    -0.904000000     1.630000000    -1.703000000
H     0.066000000     1.957000000    -2.068000000
C    -2.022000000     2.230000000    -2.225000000
H    -2.095000000     3.117000000    -2.848000000
C    -3.302000000     1.756000000    -1.770000000
C    -4.577000000     2.306000000    -2.297000000
O    -4.598000000     3.283000000    -3.040000000
O    -5.653000000     1.678000000    -2.137000000
O    -9.500000000    -1.333000000    -2.546000000
H    -8.796000000    -1.037000000    -1.969000000
H    -9.525000000    -2.282000000    -2.426000000
O    -6.859000000     4.539000000    -2.611000000
H    -6.029000000     4.063000000    -2.643000000
H    -7.154000000     4.566000000    -3.522000000
O    -4.560000000     4.078000000     0.434000000
H    -4.859000000     4.213000000    -0.465000000
H    -3.750000000     4.583000000     0.496000000
O    -5.802000000     3.782000000    -5.312000000
H    -5.317000000     3.682000000    -4.493000000
H    -6.494000000     3.121000000    -5.262000000
O    -6.447000000     7.199000000    -5.374000000
H    -7.044000000     7.423000000    -6.087000000
H    -6.054000000     6.368000000    -5.642000000
O    -3.979000000     8.279000000    -2.156000000
H    -4.295000000     8.536000000    -3.022000000
H    -3.717000000     7.364000000    -2.258000000
O    -7.425000000     0.173000000    -1.130000000
H    -6.823000000     0.783000000    -1.557000000
H    -7.055000000     0.043000000    -0.257000000
O    -1.874000000     5.975000000    -5.397000000
H    -1.463000000     5.725000000    -6.224000000
H    -2.167000000     6.876000000    -5.537000000
O   -10.165000000     1.116000000    -3.754000000
H    -9.286000000     1.424000000    -3.975000000
H   -10.027000000     0.246000000    -3.380000000
O    -6.148000000     1.005000000     1.211000000
H    -5.315000000     1.383000000     1.493000000
H    -6.704000000     1.042000000     1.989000000
O    -3.257000000     5.634000000    -2.952000000
H    -2.767000000     5.651000000    -3.774000000
H    -3.891000000     4.926000000    -3.065000000
O    -2.248000000     5.551000000    -0.330000000
H    -1.298000000     5.511000000    -0.219000000
H    -2.377000000     5.558000000    -1.279000000
O    -7.458000000     1.798000000    -4.119000000
H    -7.116000000     1.240000000    -4.818000000
H    -6.747000000     1.844000000    -3.480000000
O    -6.490000000     6.998000000    -1.140000000
H    -5.847000000     6.890000000    -1.841000000
H    -7.130000000     6.303000000    -1.293000000
O    -9.032000000     4.210000000    -5.031000000
H    -8.930000000     3.382000000    -4.560000000
H    -9.151000000     3.952000000    -5.945000000
O    -6.483000000     1.378000000    -6.940000000
H    -5.776000000     1.639000000    -7.529000000
H    -7.272000000     1.416000000    -7.482000000
O    -6.633000000     4.123000000     2.212000000
H    -5.918000000     3.981000000     1.592000000
H    -7.290000000     4.609000000     1.714000000
O    -8.004000000     2.933000000    -0.181000000
H    -7.950000000     2.048000000    -0.543000000
H    -7.728000000     3.503000000    -0.899000000
O    -3.628000000     2.089000000     1.951000000
H    -3.198000000     1.487000000     1.345000000
H    -3.912000000     2.820000000     1.402000000
