218
-1473.24564
C     0.422000000     2.805000000     4.477000000
H     1.064000000     3.375000000     3.810000000
C     0.498000000     1.415000000     4.659000000
C    -0.327000000     0.829000000     5.591000000
H    -0.239000000    -0.242000000     5.750000000
C     1.598000000     0.605000000     3.935000000
O     2.854000000     1.310000000     3.808000000
H     1.212000000     0.464000000     2.915000000
O     1.785000000    -0.641000000     4.653000000
C     1.880000000    -1.814000000     3.911000000
C     0.739000000    -2.575000000     3.758000000
H    -0.183000000    -2.321000000     4.275000000
C     0.781000000    -3.623000000     2.866000000
O    -0.367000000    -4.232000000     2.669000000
C     1.921000000    -3.987000000     2.146000000
C     1.873000000    -5.132000000     1.209000000
H     2.906000000    -5.482000000     1.255000000
C     1.453000000    -4.629000000    -0.212000000
C     2.436000000    -4.191000000    -1.101000000
H     3.496000000    -4.231000000    -0.865000000
H     1.322000000    -5.992000000     1.597000000
C     3.029000000    -3.140000000     2.251000000
H     3.917000000    -3.305000000     1.644000000
C     3.034000000    -2.066000000     3.146000000
C     4.256000000    -1.206000000     3.305000000
H     5.174000000    -1.758000000     3.090000000
H     4.272000000    -0.653000000     4.247000000
C     4.196000000    -0.080000000     2.299000000
C     4.808000000    -0.182000000     1.027000000
H     5.215000000    -1.150000000     0.746000000
C     3.548000000     1.136000000     2.631000000
C     3.575000000     2.201000000     1.781000000
H     3.217000000     3.192000000     2.046000000
C     4.076000000     2.031000000     0.481000000
O     3.782000000     3.061000000    -0.405000000
C     2.901000000     2.759000000    -1.448000000
C     1.884000000     3.864000000    -1.653000000
C     1.577000000     4.335000000    -2.999000000
H     2.332000000     4.097000000    -3.743000000
C     1.053000000     4.316000000    -0.621000000
H     1.204000000     4.008000000     0.410000000
O     3.679000000     2.421000000    -2.562000000
H     2.260000000     1.902000000    -1.194000000
C     4.827000000     0.888000000     0.168000000
C     5.468000000     0.719000000    -1.204000000
H     6.281000000    -0.004000000    -1.109000000
H     5.954000000     1.632000000    -1.554000000
C     4.422000000     0.174000000    -2.164000000
C     4.311000000    -1.183000000    -2.402000000
H     4.904000000    -1.880000000    -1.816000000
C     3.630000000     1.101000000    -2.871000000
C     2.561000000     0.667000000    -3.673000000
H     1.725000000     1.328000000    -3.887000000
C     2.447000000    -0.689000000    -3.875000000
O     1.323000000    -1.024000000    -4.618000000
C     0.185000000    -1.505000000    -3.860000000
C    -1.098000000    -0.962000000    -4.454000000
C    -1.001000000    -0.003000000    -5.438000000
H    -0.030000000     0.291000000    -5.828000000
C    -2.323000000    -1.349000000    -4.025000000
H    -2.276000000    -2.125000000    -3.265000000
O     0.204000000    -2.965000000    -3.802000000
H     0.274000000    -1.121000000    -2.833000000
C     3.350000000    -1.616000000    -3.294000000
C     3.106000000    -3.091000000    -3.407000000
H     4.081000000    -3.582000000    -3.365000000
H     2.851000000    -3.162000000    -4.466000000
C     2.055000000    -3.633000000    -2.413000000
C     0.673000000    -3.586000000    -2.669000000
C    -0.200000000    -4.128000000    -1.776000000
H    -1.272000000    -4.054000000    -1.939000000
C     0.166000000    -4.609000000    -0.540000000
O    -0.837000000    -4.849000000     0.365000000
C    -1.066000000    -3.890000000     1.436000000
H    -0.500000000    -3.052000000     1.003000000
C    -2.502000000    -3.555000000     1.687000000
C    -2.950000000    -2.868000000     2.778000000
H    -2.185000000    -2.630000000     3.513000000
C    -3.490000000    -3.728000000     0.690000000
H    -3.144000000    -4.201000000    -0.226000000
C    -4.808000000    -3.357000000     0.800000000
O    -5.723000000    -3.838000000    -0.119000000
C    -5.238000000    -2.749000000     1.939000000
H    -6.304000000    -2.630000000     2.118000000
C    -4.317000000    -2.522000000     2.991000000
O    -4.576000000    -1.813000000     4.088000000
C    -3.849000000    -1.707000000     5.252000000
C    -3.465000000    -0.434000000     5.638000000
H    -3.664000000     0.404000000     4.975000000
C    -3.437000000    -2.842000000     5.942000000
H    -3.645000000    -3.833000000     5.546000000
C    -2.685000000    -2.737000000     7.124000000
H    -2.287000000    -3.597000000     7.656000000
C    -2.377000000    -1.435000000     7.557000000
H    -1.805000000    -1.304000000     8.472000000
C    -2.704000000    -0.328000000     6.765000000
O    -2.213000000     0.946000000     7.097000000
C    -1.337000000     1.553000000     6.217000000
C    -1.420000000     2.889000000     5.998000000
H    -2.020000000     3.529000000     6.640000000
C    -0.563000000     3.530000000     5.085000000
O    -0.509000000     4.892000000     5.005000000
C    -0.293000000     5.544000000     3.845000000
C    -0.801000000     5.087000000     2.608000000
H    -1.479000000     4.243000000     2.509000000
C     0.624000000     6.614000000     3.998000000
H     0.888000000     6.955000000     4.996000000
C     1.076000000     7.210000000     2.811000000
H     1.774000000     8.040000000     2.889000000
C     0.491000000     6.795000000     1.563000000
H     0.899000000     7.209000000     0.644000000
C    -0.415000000     5.808000000     1.485000000
O    -0.867000000     5.485000000     0.195000000
C    -0.042000000     5.094000000    -0.890000000
C    -0.340000000     5.518000000    -2.119000000
H    -1.106000000     6.260000000    -2.330000000
C     0.477000000     5.134000000    -3.188000000
O     0.091000000     5.553000000    -4.441000000
C     0.067000000     4.596000000    -5.484000000
C    -0.976000000     3.700000000    -5.604000000
H    -1.718000000     3.603000000    -4.816000000
C     1.167000000     4.512000000    -6.357000000
H     2.022000000     5.182000000    -6.322000000
C     1.178000000     3.480000000    -7.310000000
H     2.122000000     3.301000000    -7.818000000
C     0.116000000     2.568000000    -7.450000000
H     0.184000000     1.709000000    -8.113000000
C    -1.001000000     2.738000000    -6.632000000
O    -2.060000000     1.834000000    -6.673000000
C    -2.151000000     0.716000000    -5.861000000
C    -3.356000000     0.406000000    -5.312000000
H    -4.222000000     0.965000000    -5.655000000
C    -3.466000000    -0.684000000    -4.469000000
O    -4.715000000    -0.946000000    -3.955000000
C    -5.075000000    -2.186000000    -3.387000000
C    -5.429000000    -3.278000000    -4.231000000
H    -5.511000000    -3.109000000    -5.301000000
C    -5.802000000    -4.487000000    -3.666000000
H    -5.961000000    -5.335000000    -4.327000000
C    -5.822000000    -4.679000000    -2.293000000
H    -5.805000000    -5.716000000    -1.969000000
C    -5.547000000    -3.580000000    -1.487000000
C    -5.233000000    -2.271000000    -1.996000000
H    -5.005000000    -1.509000000    -1.255000000
C    -2.812000000     0.153000000     0.199000000
H    -3.741000000    -0.027000000     0.734000000
C    -1.585000000    -0.454000000     0.437000000
H    -1.501000000    -1.158000000     1.261000000
C    -0.464000000    -0.147000000    -0.298000000
C     0.831000000    -0.772000000    -0.016000000
H     0.739000000    -1.475000000     0.814000000
H     1.127000000    -1.219000000    -0.968000000
H     1.514000000     0.014000000     0.313000000
C    -0.511000000     0.820000000    -1.352000000
H     0.399000000     1.085000000    -1.884000000
C    -1.735000000     1.430000000    -1.570000000
H    -1.770000000     2.031000000    -2.475000000
C    -2.914000000     1.086000000    -0.854000000
C    -4.312000000     1.588000000    -1.297000000
O    -4.361000000     2.461000000    -2.177000000
O    -5.312000000     1.158000000    -0.716000000
O    -8.938000000    -1.638000000    -2.976000000
H    -8.585000000    -1.801000000    -3.851000000
H    -8.200000000    -1.278000000    -2.483000000
O    -7.542000000     6.363000000    -1.753000000
H    -7.429000000     5.419000000    -1.649000000
H    -7.313000000     6.533000000    -2.667000000
O    -7.237000000     3.672000000    -1.560000000
H    -7.373000000     2.961000000    -0.933000000
H    -6.606000000     3.320000000    -2.187000000
O    -9.796000000     2.257000000    -2.267000000
H    -9.344000000     1.417000000    -2.195000000
H    -9.157000000     2.839000000    -2.678000000
O    -5.433000000     3.222000000     1.095000000
H    -5.624000000     2.647000000     0.354000000
H    -4.978000000     3.969000000     0.705000000
O    -6.615000000     4.109000000    -4.930000000
H    -6.614000000     3.297000000    -4.422000000
H    -6.004000000     3.944000000    -5.647000000
O    -7.130000000     6.627000000    -4.454000000
H    -7.718000000     6.736000000    -5.201000000
H    -6.750000000     5.757000000    -4.574000000
O    -7.146000000     0.608000000     1.576000000
H    -6.294000000     0.406000000     1.190000000
H    -6.959000000     0.763000000     2.502000000
O    -3.136000000     7.509000000    -3.808000000
H    -3.625000000     6.730000000    -3.542000000
H    -2.502000000     7.187000000    -4.449000000
O    -9.730000000     1.523000000     1.162000000
H    -9.764000000     0.650000000     0.771000000
H    -8.945000000     1.509000000     1.709000000
O    -7.657000000    -0.199000000    -5.199000000
H    -7.006000000     0.193000000    -5.781000000
H    -7.831000000    -1.060000000    -5.579000000
O    -7.416000000    -0.372000000    -1.160000000
H    -6.553000000     0.023000000    -1.277000000
H    -7.654000000    -0.165000000    -0.256000000
O    -6.633000000     0.558000000     4.455000000
H    -5.743000000     0.582000000     4.105000000
H    -6.763000000     1.424000000     4.841000000
O    -4.131000000     4.738000000    -3.666000000
H    -4.135000000     4.521000000    -4.598000000
H    -3.991000000     3.899000000    -3.226000000
O    -3.549000000     4.743000000    -0.608000000
H    -2.600000000     4.836000000    -0.688000000
H    -3.811000000     4.276000000    -1.401000000
O    -6.617000000     1.811000000    -3.557000000
H    -6.863000000     0.940000000    -3.868000000
H    -5.767000000     1.684000000    -3.135000000
O    -4.833000000     7.274000000    -0.853000000
H    -4.329000000     6.484000000    -0.657000000
H    -5.652000000     6.948000000    -1.228000000
O    -7.593000000     5.419000000     1.720000000
H    -7.275000000     4.521000000     1.821000000
H    -8.401000000     5.331000000     1.215000000
O    -4.204000000     1.295000000     2.911000000
H    -4.614000000     1.774000000     2.190000000
H    -3.312000000     1.124000000     2.608000000
