218
-1470.71738
C     0.563000000     2.559000000     4.693000000
H     1.571000000     2.704000000     4.314000000
C     0.007000000     1.231000000     4.642000000
C    -1.280000000     0.954000000     5.181000000
H    -1.711000000    -0.040000000     5.090000000
C     0.836000000     0.038000000     4.164000000
O     2.211000000     0.335000000     4.393000000
H     0.692000000     0.042000000     3.073000000
O     0.365000000    -1.190000000     4.771000000
C     0.374000000    -2.355000000     4.007000000
C    -0.886000000    -2.785000000     3.550000000
H    -1.810000000    -2.306000000     3.862000000
C    -0.934000000    -3.734000000     2.562000000
O    -2.141000000    -3.988000000     2.027000000
C     0.188000000    -4.308000000     2.128000000
C     0.038000000    -5.399000000     1.106000000
H     0.944000000    -5.989000000     1.262000000
C     0.071000000    -4.794000000    -0.313000000
C     1.258000000    -4.734000000    -1.088000000
H     2.208000000    -5.150000000    -0.762000000
H    -0.800000000    -6.049000000     1.365000000
C     1.453000000    -3.998000000     2.638000000
H     2.298000000    -4.624000000     2.364000000
C     1.551000000    -2.909000000     3.567000000
C     2.938000000    -2.353000000     3.987000000
H     3.695000000    -3.139000000     4.011000000
H     2.940000000    -2.033000000     5.031000000
C     3.351000000    -1.266000000     3.063000000
C     4.142000000    -1.625000000     1.982000000
H     4.473000000    -2.659000000     1.942000000
C     3.060000000     0.054000000     3.313000000
C     3.556000000     1.083000000     2.527000000
H     3.255000000     2.123000000     2.615000000
C     4.243000000     0.721000000     1.317000000
O     4.483000000     1.702000000     0.353000000
C     3.626000000     1.834000000    -0.807000000
C     3.176000000     3.257000000    -1.081000000
C     3.078000000     3.745000000    -2.369000000
H     3.312000000     3.082000000    -3.198000000
C     2.663000000     3.908000000     0.047000000
H     2.708000000     3.493000000     1.051000000
O     4.465000000     1.316000000    -1.833000000
H     2.716000000     1.257000000    -0.587000000
C     4.581000000    -0.622000000     1.072000000
C     5.310000000    -1.084000000    -0.161000000
H     5.790000000    -2.061000000    -0.071000000
H     6.188000000    -0.453000000    -0.316000000
C     4.493000000    -1.135000000    -1.421000000
C     4.051000000    -2.407000000    -1.740000000
H     4.353000000    -3.267000000    -1.148000000
C     4.180000000     0.015000000    -2.160000000
C     3.296000000    -0.149000000    -3.192000000
H     2.950000000     0.728000000    -3.733000000
C     2.772000000    -1.442000000    -3.487000000
O     1.776000000    -1.554000000    -4.415000000
C     0.436000000    -1.652000000    -3.936000000
C    -0.366000000    -0.751000000    -4.838000000
C     0.146000000     0.428000000    -5.376000000
H     1.188000000     0.738000000    -5.369000000
C    -1.731000000    -0.953000000    -4.903000000
H    -2.183000000    -1.842000000    -4.470000000
O    -0.075000000    -3.051000000    -4.024000000
H     0.409000000    -1.273000000    -2.904000000
C     3.176000000    -2.518000000    -2.759000000
C     2.635000000    -3.921000000    -3.111000000
H     3.377000000    -4.644000000    -2.765000000
H     2.364000000    -4.079000000    -4.157000000
C     1.321000000    -4.122000000    -2.337000000
C     0.080000000    -3.777000000    -2.896000000
C    -1.049000000    -3.828000000    -2.155000000
H    -1.934000000    -3.620000000    -2.750000000
C    -1.160000000    -4.398000000    -0.890000000
O    -2.340000000    -4.301000000    -0.190000000
C    -2.433000000    -3.314000000     0.815000000
H    -1.684000000    -2.519000000     0.676000000
C    -3.762000000    -2.613000000     0.862000000
C    -4.343000000    -2.110000000     2.025000000
H    -3.947000000    -2.321000000     3.015000000
C    -4.321000000    -2.238000000    -0.358000000
H    -3.810000000    -2.569000000    -1.259000000
C    -5.527000000    -1.557000000    -0.379000000
O    -6.192000000    -1.151000000    -1.553000000
C    -6.136000000    -1.201000000     0.751000000
H    -7.084000000    -0.669000000     0.727000000
C    -5.546000000    -1.381000000     2.001000000
O    -6.016000000    -0.787000000     3.153000000
C    -5.325000000    -0.704000000     4.351000000
C    -4.724000000     0.433000000     4.772000000
H    -4.826000000     1.280000000     4.098000000
C    -5.366000000    -1.860000000     5.179000000
H    -5.874000000    -2.764000000     4.854000000
C    -4.710000000    -1.777000000     6.444000000
H    -4.713000000    -2.664000000     7.072000000
C    -4.009000000    -0.590000000     6.812000000
H    -3.495000000    -0.519000000     7.767000000
C    -4.004000000     0.532000000     5.997000000
O    -3.224000000     1.624000000     6.402000000
C    -1.964000000     1.935000000     5.869000000
C    -1.446000000     3.240000000     5.921000000
H    -1.967000000     4.002000000     6.495000000
C    -0.212000000     3.541000000     5.351000000
O     0.222000000     4.868000000     5.320000000
C     1.197000000     5.251000000     4.460000000
C     0.988000000     5.163000000     3.099000000
H     0.110000000     4.784000000     2.581000000
C     2.412000000     5.740000000     4.918000000
H     2.643000000     5.858000000     5.973000000
C     3.393000000     6.154000000     3.986000000
H     4.322000000     6.624000000     4.297000000
C     3.133000000     6.098000000     2.617000000
H     3.799000000     6.455000000     1.835000000
C     1.879000000     5.644000000     2.172000000
O     1.493000000     5.855000000     0.799000000
C     2.003000000     5.096000000    -0.212000000
C     1.958000000     5.588000000    -1.486000000
H     1.358000000     6.489000000    -1.579000000
C     2.537000000     4.974000000    -2.549000000
O     2.422000000     5.507000000    -3.813000000
C     2.220000000     4.805000000    -5.002000000
C     1.089000000     4.045000000    -5.063000000
H     0.325000000     3.944000000    -4.296000000
C     3.171000000     4.882000000    -6.014000000
H     4.091000000     5.405000000    -5.765000000
C     2.890000000     4.180000000    -7.131000000
H     3.348000000     4.365000000    -8.100000000
C     1.794000000     3.355000000    -7.194000000
H     1.560000000     2.849000000    -8.127000000
C     0.892000000     3.244000000    -6.141000000
O    -0.314000000     2.575000000    -6.343000000
C    -0.764000000     1.351000000    -5.871000000
C    -2.162000000     1.119000000    -5.954000000
H    -2.731000000     1.885000000    -6.475000000
C    -2.601000000    -0.076000000    -5.476000000
O    -3.901000000    -0.348000000    -5.720000000
C    -4.669000000    -1.145000000    -4.840000000
C    -5.039000000    -2.411000000    -5.272000000
H    -4.817000000    -2.809000000    -6.258000000
C    -5.768000000    -3.255000000    -4.428000000
H    -6.064000000    -4.204000000    -4.868000000
C    -6.242000000    -2.796000000    -3.195000000
H    -6.921000000    -3.389000000    -2.587000000
C    -5.784000000    -1.582000000    -2.724000000
C    -5.014000000    -0.724000000    -3.548000000
H    -4.791000000     0.283000000    -3.207000000
C    -2.739000000     0.680000000     0.099000000
H    -3.593000000     0.796000000     0.762000000
C    -1.645000000    -0.085000000     0.470000000
H    -1.612000000    -0.530000000     1.462000000
C    -0.484000000    -0.094000000    -0.325000000
C     0.833000000    -0.672000000     0.169000000
H     1.274000000     0.144000000     0.745000000
H     0.713000000    -1.575000000     0.771000000
H     1.418000000    -0.839000000    -0.737000000
C    -0.563000000     0.591000000    -1.502000000
H     0.319000000     0.707000000    -2.127000000
C    -1.694000000     1.239000000    -1.967000000
H    -1.678000000     1.941000000    -2.796000000
C    -2.888000000     1.282000000    -1.155000000
C    -3.955000000     2.230000000    -1.550000000
O    -3.911000000     2.809000000    -2.610000000
O    -4.928000000     2.412000000    -0.754000000
O    -0.788000000     6.665000000    -3.407000000
H    -1.038000000     7.346000000    -2.782000000
H    -0.311000000     7.134000000    -4.093000000
O    -8.493000000     6.179000000    -1.063000000
H    -8.674000000     5.243000000    -0.980000000
H    -7.558000000     6.260000000    -0.877000000
O    -8.766000000     1.229000000    -0.237000000
H    -8.105000000     1.856000000    -0.530000000
H    -8.461000000     0.944000000     0.625000000
O    -7.839000000     3.567000000     2.729000000
H    -8.531000000     3.652000000     2.073000000
H    -7.236000000     2.923000000     2.359000000
O    -6.049000000     1.995000000     1.578000000
H    -5.859000000     1.083000000     1.798000000
H    -5.639000000     2.124000000     0.722000000
O    -9.403000000    -0.514000000    -2.443000000
H    -8.551000000    -0.656000000    -2.855000000
H    -9.222000000     0.084000000    -1.718000000
O    -1.648000000     3.116000000     1.486000000
H    -1.706000000     3.657000000     0.698000000
H    -1.230000000     2.307000000     1.190000000
O    -3.830000000     4.061000000     3.433000000
H    -3.039000000     3.927000000     2.910000000
H    -4.466000000     3.447000000     3.067000000
O    -7.911000000     0.967000000    -4.675000000
H    -8.674000000     1.385000000    -4.276000000
H    -7.169000000     1.501000000    -4.391000000
O    -3.218000000     5.041000000    -7.196000000
H    -4.123000000     4.742000000    -7.107000000
H    -2.769000000     4.676000000    -6.433000000
O   -10.209000000     3.680000000    -1.987000000
H    -9.255000000     3.687000000    -1.909000000
H   -10.374000000     3.426000000    -2.895000000
O    -4.455000000     6.177000000    -2.875000000
H    -4.503000000     5.489000000    -3.539000000
H    -4.075000000     5.745000000    -2.110000000
O    -7.275000000     3.194000000    -1.560000000
H    -6.407000000     2.925000000    -1.261000000
H    -7.197000000     3.244000000    -2.512000000
O    -2.504000000     4.278000000    -4.443000000
H    -2.080000000     4.946000000    -3.904000000
H    -2.982000000     3.734000000    -3.817000000
O    -5.960000000     2.881000000    -4.126000000
H    -5.227000000     2.870000000    -3.511000000
H    -5.558000000     2.722000000    -4.980000000
O    -5.169000000     2.824000000    -7.327000000
H    -5.807000000     3.505000000    -7.115000000
H    -5.601000000     2.290000000    -7.995000000
O    -1.778000000     5.244000000    -0.284000000
H    -2.722000000     5.401000000    -0.257000000
H    -1.445000000     5.889000000    -0.908000000
O    -4.555000000     5.132000000    -0.312000000
H    -5.294000000     5.350000000     0.255000000
H    -4.774000000     4.273000000    -0.673000000
O    -6.547000000     6.708000000     0.852000000
H    -5.703000000     7.153000000     0.924000000
H    -6.937000000     6.792000000     1.723000000
