218
-1494.70005
C     3.104000000    -0.036000000     4.444000000
H     3.790000000    -0.363000000     3.667000000
C     1.903000000    -0.693000000     4.519000000
C     0.967000000    -0.178000000     5.465000000
H     0.012000000    -0.698000000     5.471000000
C     1.626000000    -1.817000000     3.581000000
O     2.782000000    -2.612000000     3.247000000
H     1.255000000    -1.371000000     2.646000000
O     0.606000000    -2.655000000     4.122000000
C    -0.420000000    -3.177000000     3.373000000
C    -1.701000000    -2.628000000     3.334000000
H    -1.928000000    -1.766000000     3.957000000
C    -2.691000000    -3.071000000     2.485000000
O    -3.843000000    -2.372000000     2.492000000
C    -2.326000000    -4.097000000     1.542000000
C    -3.352000000    -4.456000000     0.504000000
H    -3.190000000    -5.502000000     0.235000000
C    -3.269000000    -3.518000000    -0.727000000
C    -2.522000000    -3.908000000    -1.841000000
H    -2.058000000    -4.891000000    -1.844000000
H    -4.392000000    -4.487000000     0.836000000
C    -1.038000000    -4.695000000     1.536000000
H    -0.767000000    -5.387000000     0.743000000
C    -0.118000000    -4.199000000     2.483000000
C     1.259000000    -4.858000000     2.315000000
H     1.120000000    -5.909000000     2.053000000
H     1.838000000    -5.065000000     3.217000000
C     2.225000000    -4.036000000     1.399000000
C     2.450000000    -4.342000000     0.034000000
H     1.993000000    -5.262000000    -0.320000000
C     2.887000000    -2.981000000     1.907000000
C     3.570000000    -2.078000000     1.060000000
H     3.908000000    -1.123000000     1.454000000
C     3.813000000    -2.358000000    -0.255000000
O     4.451000000    -1.434000000    -1.025000000
C     3.662000000    -0.510000000    -1.839000000
C     4.060000000     0.948000000    -1.697000000
C     3.849000000     1.810000000    -2.817000000
H     3.545000000     1.377000000    -3.767000000
C     4.608000000     1.465000000    -0.542000000
H     4.850000000     0.775000000     0.262000000
O     3.723000000    -1.085000000    -3.152000000
H     2.682000000    -0.584000000    -1.346000000
C     3.273000000    -3.582000000    -0.815000000
C     3.262000000    -3.782000000    -2.310000000
H     3.099000000    -4.822000000    -2.598000000
H     4.295000000    -3.643000000    -2.635000000
C     2.189000000    -2.982000000    -2.989000000
C     0.928000000    -3.487000000    -3.258000000
H     0.674000000    -4.429000000    -2.779000000
C     2.499000000    -1.707000000    -3.474000000
C     1.523000000    -0.995000000    -4.251000000
H     1.750000000    -0.001000000    -4.630000000
C     0.245000000    -1.532000000    -4.490000000
O    -0.782000000    -0.756000000    -4.989000000
C    -1.626000000    -0.107000000    -4.010000000
C    -1.888000000     1.340000000    -4.446000000
C    -0.998000000     1.937000000    -5.291000000
H    -0.127000000     1.395000000    -5.651000000
C    -2.987000000     2.056000000    -3.876000000
H    -3.698000000     1.568000000    -3.215000000
O    -2.843000000    -0.830000000    -3.803000000
H    -1.106000000     0.007000000    -3.047000000
C    -0.050000000    -2.831000000    -3.917000000
C    -1.454000000    -3.462000000    -3.943000000
H    -1.407000000    -4.551000000    -4.009000000
H    -1.956000000    -3.272000000    -4.894000000
C    -2.360000000    -3.026000000    -2.852000000
C    -2.919000000    -1.751000000    -2.838000000
C    -3.813000000    -1.429000000    -1.791000000
H    -4.364000000    -0.492000000    -1.758000000
C    -3.844000000    -2.269000000    -0.701000000
O    -4.573000000    -1.792000000     0.344000000
C    -3.869000000    -1.355000000     1.530000000
H    -2.854000000    -1.131000000     1.170000000
C    -4.431000000    -0.058000000     2.102000000
C    -4.155000000     0.324000000     3.425000000
H    -3.860000000    -0.463000000     4.114000000
C    -5.095000000     0.847000000     1.274000000
H    -5.392000000     0.546000000     0.273000000
C    -5.309000000     2.142000000     1.651000000
O    -5.891000000     3.096000000     0.874000000
C    -4.872000000     2.548000000     2.962000000
H    -4.912000000     3.620000000     3.133000000
C    -4.424000000     1.631000000     3.879000000
O    -3.989000000     2.088000000     5.129000000
C    -3.169000000     1.308000000     5.936000000
C    -1.853000000     1.776000000     6.196000000
H    -1.473000000     2.601000000     5.599000000
C    -3.526000000     0.215000000     6.697000000
H    -4.548000000    -0.155000000     6.685000000
C    -2.660000000    -0.512000000     7.502000000
H    -3.091000000    -1.364000000     8.021000000
C    -1.324000000    -0.119000000     7.664000000
H    -0.582000000    -0.623000000     8.278000000
C    -0.958000000     1.090000000     7.049000000
O     0.341000000     1.471000000     7.141000000
C     1.270000000     0.860000000     6.353000000
C     2.551000000     1.497000000     6.233000000
H     2.784000000     2.397000000     6.795000000
C     3.460000000     1.063000000     5.231000000
O     4.700000000     1.696000000     5.258000000
C     5.489000000     1.844000000     4.144000000
C     4.977000000     2.516000000     3.010000000
H     4.080000000     3.125000000     3.080000000
C     6.632000000     1.064000000     4.043000000
H     6.935000000     0.483000000     4.910000000
C     7.379000000     0.968000000     2.905000000
H     8.212000000     0.270000000     2.875000000
C     6.953000000     1.721000000     1.790000000
H     7.439000000     1.633000000     0.822000000
C     5.763000000     2.480000000     1.802000000
O     5.372000000     3.267000000     0.736000000
C     4.848000000     2.829000000    -0.435000000
C     4.446000000     3.728000000    -1.420000000
H     4.553000000     4.800000000    -1.275000000
C     3.984000000     3.224000000    -2.646000000
O     3.687000000     4.128000000    -3.683000000
C     3.084000000     3.755000000    -4.846000000
C     1.739000000     3.916000000    -5.044000000
H     1.179000000     4.424000000    -4.263000000
C     3.874000000     3.229000000    -5.914000000
H     4.947000000     3.097000000    -5.800000000
C     3.264000000     3.180000000    -7.174000000
H     3.840000000     2.969000000    -8.072000000
C     1.823000000     3.267000000    -7.383000000
H     1.385000000     3.186000000    -8.375000000
C     1.093000000     3.660000000    -6.269000000
O    -0.245000000     3.859000000    -6.450000000
C    -1.150000000     3.316000000    -5.563000000
C    -2.154000000     4.000000000    -4.967000000
H    -2.254000000     5.046000000    -5.247000000
C    -3.084000000     3.424000000    -4.163000000
O    -3.861000000     4.231000000    -3.414000000
C    -4.943000000     3.747000000    -2.655000000
C    -5.949000000     2.974000000    -3.283000000
H    -5.930000000     2.987000000    -4.370000000
C    -6.958000000     2.333000000    -2.555000000
H    -7.824000000     1.842000000    -2.991000000
C    -6.884000000     2.363000000    -1.172000000
H    -7.604000000     1.793000000    -0.590000000
C    -5.869000000     3.064000000    -0.524000000
C    -4.898000000     3.821000000    -1.263000000
H    -4.173000000     4.449000000    -0.751000000
C    -1.909000000     2.754000000     0.089000000
H    -2.668000000     3.196000000     0.729000000
C    -1.503000000     1.400000000     0.270000000
H    -2.061000000     0.831000000     1.008000000
C    -0.449000000     0.845000000    -0.547000000
C    -0.034000000    -0.618000000    -0.352000000
H     0.619000000    -0.696000000     0.519000000
H    -0.818000000    -1.375000000    -0.427000000
H     0.630000000    -0.949000000    -1.152000000
C     0.266000000     1.700000000    -1.378000000
H     1.128000000     1.404000000    -1.969000000
C    -0.094000000     3.062000000    -1.528000000
H     0.423000000     3.663000000    -2.272000000
C    -1.184000000     3.583000000    -0.761000000
C    -1.590000000     5.023000000    -1.008000000
O    -1.255000000     5.707000000    -1.900000000
O    -2.165000000     5.602000000    -0.054000000
O    -2.586000000    10.454000000    -3.295000000
H    -3.238000000    10.407000000    -3.995000000
H    -2.263000000     9.557000000    -3.209000000
O     1.449000000     5.233000000     1.055000000
H     0.727000000     5.708000000     1.466000000
H     2.196000000     5.828000000     1.123000000
O    -0.512000000     7.924000000    -0.635000000
H    -0.935000000     7.248000000    -1.164000000
H    -0.117000000     7.447000000     0.094000000
O    -2.610000000     7.301000000    -3.644000000
H    -2.096000000     6.702000000    -3.102000000
H    -2.121000000     7.361000000    -4.464000000
O     0.937000000     3.611000000     4.153000000
H     1.254000000     3.527000000     3.254000000
H     0.448000000     2.803000000     4.311000000
O    -7.227000000     6.180000000    -2.649000000
H    -7.125000000     5.247000000    -2.461000000
H    -6.988000000     6.617000000    -1.832000000
O    -0.758000000     6.724000000     1.934000000
H    -1.385000000     6.335000000     1.324000000
H    -1.049000000     6.431000000     2.797000000
O    -3.431000000     7.759000000    -0.733000000
H    -3.021000000     6.916000000    -0.927000000
H    -2.792000000     8.216000000    -0.186000000
O     0.694000000     6.864000000    -3.315000000
H     0.014000000     6.199000000    -3.207000000
H     0.818000000     7.224000000    -2.436000000
O     1.591000000     2.359000000     1.431000000
H     2.167000000     2.918000000     0.909000000
H     0.800000000     2.268000000     0.900000000
O    -3.272000000     8.484000000     2.516000000
H    -3.926000000     8.903000000     1.956000000
H    -3.629000000     7.614000000     2.692000000
O    -5.987000000     7.268000000    -0.388000000
H    -6.135000000     8.059000000     0.130000000
H    -5.059000000     7.306000000    -0.623000000
O    -4.374000000     6.082000000     2.026000000
H    -3.611000000     5.944000000     1.464000000
H    -5.101000000     6.210000000     1.417000000
O    -5.268000000     7.507000000    -4.519000000
H    -4.394000000     7.599000000    -4.141000000
H    -5.835000000     7.321000000    -3.771000000
O     1.261000000     8.689000000     2.394000000
H     0.976000000     9.306000000     1.720000000
H     0.479000000     8.174000000     2.594000000
O     3.055000000     7.486000000     0.862000000
H     2.359000000     7.927000000     1.349000000
H     3.405000000     8.161000000     0.281000000
O    -1.661000000     9.925000000     1.101000000
H    -2.078000000     9.457000000     1.825000000
H    -1.153000000     9.255000000     0.644000000
O     0.054000000    11.183000000    -1.714000000
H     0.362000000    11.372000000    -0.828000000
H    -0.087000000    10.236000000    -1.723000000
O    -0.652000000     7.718000000    -5.698000000
H     0.179000000     7.330000000    -5.426000000
H    -0.401000000     8.492000000    -6.203000000
