218
-1472.39972
C     4.396000000    -3.580000000     1.678000000
H     4.604000000    -3.820000000     0.638000000
C     3.093000000    -3.723000000     2.085000000
C     2.803000000    -3.489000000     3.496000000
H     1.741000000    -3.474000000     3.725000000
C     1.870000000    -3.958000000     1.128000000
O     2.245000000    -4.532000000    -0.133000000
H     1.499000000    -2.936000000     0.961000000
O     0.746000000    -4.711000000     1.678000000
C    -0.501000000    -4.283000000     1.410000000
C    -1.075000000    -3.463000000     2.352000000
H    -0.551000000    -3.245000000     3.279000000
C    -2.439000000    -3.077000000     2.144000000
O    -2.883000000    -2.102000000     2.976000000
C    -3.104000000    -3.488000000     0.981000000
C    -4.561000000    -3.148000000     0.709000000
H    -5.022000000    -3.919000000     0.088000000
C    -4.612000000    -1.804000000    -0.046000000
C    -4.519000000    -1.751000000    -1.420000000
H    -4.577000000    -2.688000000    -1.968000000
H    -5.188000000    -2.969000000     1.586000000
C    -2.377000000    -4.192000000     0.008000000
H    -2.845000000    -4.354000000    -0.959000000
C    -1.086000000    -4.660000000     0.236000000
C    -0.374000000    -5.472000000    -0.799000000
H    -1.175000000    -6.059000000    -1.255000000
H     0.259000000    -6.219000000    -0.316000000
C     0.422000000    -4.617000000    -1.712000000
C    -0.101000000    -4.117000000    -2.888000000
H    -1.034000000    -4.509000000    -3.284000000
C     1.643000000    -4.132000000    -1.268000000
C     2.415000000    -3.314000000    -2.030000000
H     3.408000000    -3.063000000    -1.667000000
C     1.895000000    -2.847000000    -3.227000000
O     2.633000000    -1.810000000    -3.794000000
C     2.087000000    -0.503000000    -3.501000000
C     3.149000000     0.539000000    -3.024000000
C     3.061000000     1.953000000    -3.331000000
H     2.216000000     2.294000000    -3.923000000
C     4.048000000     0.186000000    -2.056000000
H     4.122000000    -0.868000000    -1.804000000
O     1.433000000    -0.125000000    -4.638000000
H     1.350000000    -0.572000000    -2.688000000
C     0.610000000    -3.227000000    -3.677000000
C     0.097000000    -2.634000000    -5.002000000
H    -0.611000000    -3.267000000    -5.541000000
H     0.864000000    -2.691000000    -5.778000000
C    -0.626000000    -1.337000000    -4.803000000
C    -2.009000000    -1.419000000    -4.553000000
H    -2.486000000    -2.395000000    -4.587000000
C     0.056000000    -0.165000000    -4.649000000
C    -0.623000000     0.963000000    -4.284000000
H    -0.011000000     1.862000000    -4.271000000
C    -1.976000000     0.936000000    -3.941000000
O    -2.566000000     2.092000000    -3.540000000
C    -2.863000000     2.274000000    -2.127000000
C    -2.539000000     3.715000000    -1.721000000
C    -1.458000000     4.409000000    -2.328000000
H    -0.798000000     3.983000000    -3.080000000
C    -3.280000000     4.321000000    -0.656000000
H    -4.094000000     3.731000000    -0.243000000
O    -4.203000000     1.900000000    -1.940000000
H    -2.276000000     1.626000000    -1.460000000
C    -2.696000000    -0.315000000    -4.030000000
C    -4.144000000    -0.495000000    -3.571000000
H    -4.583000000    -1.398000000    -4.001000000
H    -4.727000000     0.355000000    -3.931000000
C    -4.468000000    -0.534000000    -2.079000000
C    -4.492000000     0.693000000    -1.398000000
C    -4.579000000     0.602000000     0.024000000
H    -4.560000000     1.485000000     0.657000000
C    -4.621000000    -0.615000000     0.614000000
O    -4.427000000    -0.587000000     1.946000000
C    -2.989000000    -0.805000000     2.361000000
H    -2.362000000    -0.709000000     1.462000000
C    -2.566000000     0.258000000     3.427000000
C    -1.431000000     0.000000000     4.245000000
H    -0.918000000    -0.939000000     4.052000000
C    -3.279000000     1.491000000     3.557000000
H    -4.056000000     1.775000000     2.851000000
C    -2.801000000     2.404000000     4.483000000
O    -3.444000000     3.613000000     4.765000000
C    -1.710000000     2.122000000     5.310000000
H    -1.459000000     2.827000000     6.099000000
C    -1.032000000     0.938000000     5.179000000
O     0.063000000     0.688000000     5.992000000
C     0.419000000    -0.658000000     6.259000000
C     1.700000000    -1.077000000     5.821000000
H     2.459000000    -0.390000000     5.455000000
C    -0.367000000    -1.419000000     7.068000000
H    -1.299000000    -1.051000000     7.488000000
C     0.049000000    -2.794000000     7.166000000
H    -0.577000000    -3.481000000     7.729000000
C     1.345000000    -3.271000000     6.686000000
H     1.676000000    -4.263000000     6.982000000
C     2.177000000    -2.396000000     6.009000000
O     3.505000000    -2.731000000     5.706000000
C     3.853000000    -3.132000000     4.399000000
C     5.113000000    -2.910000000     3.905000000
H     5.968000000    -2.576000000     4.487000000
C     5.342000000    -3.082000000     2.537000000
O     6.632000000    -2.888000000     2.126000000
C     6.864000000    -2.357000000     0.861000000
C     6.357000000    -1.073000000     0.656000000
H     5.889000000    -0.572000000     1.501000000
C     7.550000000    -3.037000000    -0.109000000
H     8.024000000    -4.004000000     0.037000000
C     7.785000000    -2.375000000    -1.326000000
H     8.419000000    -2.941000000    -2.004000000
C     7.236000000    -1.119000000    -1.604000000
H     7.387000000    -0.672000000    -2.584000000
C     6.524000000    -0.488000000    -0.588000000
O     6.030000000     0.787000000    -0.703000000
C     4.934000000     1.118000000    -1.497000000
C     4.877000000     2.477000000    -1.865000000
H     5.526000000     3.242000000    -1.446000000
C     3.961000000     2.878000000    -2.823000000
O     4.025000000     4.189000000    -3.267000000
C     2.928000000     4.811000000    -3.766000000
C     2.015000000     5.329000000    -2.899000000
H     2.182000000     5.256000000    -1.828000000
C     2.707000000     4.950000000    -5.194000000
H     3.415000000     4.512000000    -5.893000000
C     1.579000000     5.700000000    -5.604000000
H     1.269000000     5.867000000    -6.632000000
C     0.636000000     6.132000000    -4.682000000
H    -0.354000000     6.447000000    -5.001000000
C     0.849000000     5.961000000    -3.349000000
O    -0.192000000     6.429000000    -2.523000000
C    -1.188000000     5.670000000    -1.904000000
C    -1.963000000     6.268000000    -0.898000000
H    -1.707000000     7.277000000    -0.585000000
C    -2.959000000     5.563000000    -0.243000000
O    -3.650000000     6.170000000     0.755000000
C    -4.323000000     5.634000000     1.830000000
C    -5.686000000     5.551000000     1.797000000
H    -6.238000000     5.959000000     0.954000000
C    -6.335000000     4.771000000     2.746000000
H    -7.421000000     4.796000000     2.720000000
C    -5.611000000     4.263000000     3.862000000
H    -6.046000000     3.771000000     4.728000000
C    -4.227000000     4.280000000     3.858000000
C    -3.585000000     4.899000000     2.756000000
H    -2.502000000     4.822000000     2.719000000
C     1.536000000    -0.013000000     1.985000000
H     2.033000000    -0.481000000     2.832000000
C     0.662000000    -0.638000000     1.137000000
H     0.199000000    -1.548000000     1.513000000
C     0.262000000    -0.115000000    -0.078000000
C    -0.768000000    -0.862000000    -0.911000000
H    -1.800000000    -0.666000000    -0.613000000
H    -0.493000000    -0.637000000    -1.944000000
H    -0.657000000    -1.945000000    -0.833000000
C     0.860000000     1.044000000    -0.537000000
H     0.489000000     1.390000000    -1.499000000
C     1.732000000     1.810000000     0.357000000
H     2.123000000     2.806000000     0.161000000
C     2.032000000     1.286000000     1.643000000
C     3.009000000     1.995000000     2.559000000
O     3.454000000     3.031000000     2.132000000
O     3.291000000     1.574000000     3.672000000
O     4.861000000     3.777000000     4.367000000
H     4.252000000     3.346000000     3.767000000
H     4.565000000     3.513000000     5.239000000
O     2.409000000     2.270000000     6.095000000
H     2.738000000     2.083000000     5.216000000
H     1.490000000     2.003000000     6.069000000
O     4.509000000     5.701000000     0.011000000
H     4.332000000     5.831000000     0.943000000
H     4.141000000     4.840000000    -0.185000000
O     7.743000000     1.064000000     2.486000000
H     8.128000000     0.762000000     1.664000000
H     7.609000000     2.003000000     2.358000000
O     6.658000000     1.866000000     7.657000000
H     5.727000000     1.665000000     7.562000000
H     7.032000000     1.082000000     8.059000000
O    -0.285000000     5.366000000     1.549000000
H    -0.543000000     4.542000000     1.136000000
H     0.322000000     5.107000000     2.242000000
O     5.942000000     2.943000000     1.896000000
H     5.014000000     2.802000000     1.709000000
H     5.948000000     3.581000000     2.610000000
O     6.600000000     5.478000000     3.349000000
H     7.360000000     4.902000000     3.431000000
H     5.930000000     5.072000000     3.899000000
O     4.186000000     0.813000000     7.745000000
H     3.823000000     0.076000000     8.237000000
H     3.422000000     1.251000000     7.371000000
O     8.033000000     3.164000000     0.095000000
H     8.300000000     2.258000000    -0.057000000
H     7.301000000     3.098000000     0.709000000
O     1.695000000     4.625000000     3.558000000
H     2.278000000     5.287000000     3.929000000
H     2.281000000     4.009000000     3.117000000
O     3.305000000     6.560000000     4.193000000
H     3.971000000     6.784000000     4.843000000
H     3.317000000     7.291000000     3.575000000
O    -0.878000000     2.638000000     1.399000000
H    -0.265000000     1.907000000     1.328000000
H    -1.575000000     2.312000000     1.968000000
O     8.537000000     1.061000000     5.392000000
H     8.424000000     1.021000000     4.442000000
H     7.694000000     0.778000000     5.746000000
O     5.622000000     0.225000000     4.140000000
H     4.774000000     0.652000000     4.265000000
H     6.018000000     0.689000000     3.403000000
O     6.588000000     5.541000000    -1.712000000
H     7.377000000     5.377000000    -1.196000000
H     5.908000000     5.717000000    -1.061000000
O     6.206000000    -0.928000000     6.686000000
H     6.130000000    -0.630000000     5.780000000
H     5.318000000    -0.857000000     7.037000000
O     3.411000000     4.412000000     8.310000000
H     3.457000000     3.728000000     8.978000000
H     2.997000000     3.986000000     7.559000000
O     0.479000000     4.764000000     6.147000000
H     1.073000000     4.352000000     5.520000000
H     0.299000000     5.627000000     5.774000000
