218
-1454.58836
C     3.826000000    -3.193000000     1.170000000
H     3.937000000    -3.043000000     0.099000000
C     2.615000000    -3.780000000     1.544000000
C     2.251000000    -3.860000000     2.872000000
H     1.274000000    -4.225000000     3.180000000
C     1.536000000    -4.032000000     0.462000000
O     2.034000000    -4.447000000    -0.778000000
H     0.983000000    -3.102000000     0.266000000
O     0.586000000    -5.007000000     0.921000000
C    -0.718000000    -4.569000000     0.851000000
C    -1.458000000    -3.914000000     1.877000000
H    -0.988000000    -3.704000000     2.834000000
C    -2.743000000    -3.429000000     1.690000000
O    -3.259000000    -2.579000000     2.645000000
C    -3.324000000    -3.491000000     0.405000000
C    -4.669000000    -2.867000000     0.082000000
H    -5.093000000    -3.350000000    -0.801000000
C    -4.555000000    -1.401000000    -0.326000000
C    -4.533000000    -1.011000000    -1.689000000
H    -4.425000000    -1.698000000    -2.525000000
H    -5.392000000    -3.082000000     0.871000000
C    -2.628000000    -4.159000000    -0.582000000
H    -3.218000000    -4.405000000    -1.461000000
C    -1.352000000    -4.702000000    -0.409000000
C    -0.574000000    -5.310000000    -1.608000000
H    -1.227000000    -5.837000000    -2.307000000
H    -0.042000000    -6.178000000    -1.213000000
C     0.251000000    -4.253000000    -2.339000000
C    -0.407000000    -3.565000000    -3.410000000
H    -1.409000000    -3.756000000    -3.785000000
C     1.533000000    -3.985000000    -1.953000000
C     2.242000000    -3.068000000    -2.638000000
H     3.222000000    -2.761000000    -2.281000000
C     1.692000000    -2.480000000    -3.762000000
O     2.358000000    -1.461000000    -4.348000000
C     2.037000000    -0.132000000    -3.914000000
C     3.212000000     0.678000000    -3.522000000
C     3.246000000     2.067000000    -3.578000000
H     2.335000000     2.602000000    -3.834000000
C     4.415000000     0.042000000    -3.209000000
H     4.349000000    -1.042000000    -3.259000000
O     1.167000000     0.528000000    -4.842000000
H     1.470000000    -0.157000000    -2.972000000
C     0.388000000    -2.721000000    -4.165000000
C    -0.364000000    -1.930000000    -5.274000000
H    -1.202000000    -2.461000000    -5.730000000
H     0.302000000    -1.793000000    -6.129000000
C    -0.942000000    -0.594000000    -4.718000000
C    -2.306000000    -0.553000000    -4.334000000
H    -2.919000000    -1.442000000    -4.462000000
C    -0.152000000     0.521000000    -4.546000000
C    -0.711000000     1.688000000    -4.109000000
H    -0.146000000     2.563000000    -3.799000000
C    -2.041000000     1.833000000    -3.771000000
O    -2.455000000     2.990000000    -3.110000000
C    -2.697000000     2.763000000    -1.694000000
C    -2.113000000     3.924000000    -0.865000000
C    -1.118000000     4.805000000    -1.457000000
H    -0.818000000     4.738000000    -2.499000000
C    -2.506000000     4.190000000     0.453000000
H    -3.221000000     3.548000000     0.959000000
O    -4.110000000     2.625000000    -1.385000000
H    -2.364000000     1.755000000    -1.404000000
C    -2.857000000     0.686000000    -3.944000000
C    -4.350000000     0.688000000    -3.562000000
H    -4.900000000     0.012000000    -4.220000000
H    -4.809000000     1.655000000    -3.779000000
C    -4.604000000     0.315000000    -2.085000000
C    -4.582000000     1.328000000    -1.084000000
C    -4.604000000     0.915000000     0.286000000
H    -4.609000000     1.723000000     1.014000000
C    -4.582000000    -0.423000000     0.620000000
O    -4.568000000    -0.728000000     1.968000000
C    -3.287000000    -1.094000000     2.489000000
H    -2.498000000    -0.892000000     1.749000000
C    -2.895000000    -0.263000000     3.731000000
C    -1.741000000    -0.647000000     4.480000000
H    -1.267000000    -1.594000000     4.235000000
C    -3.640000000     0.850000000     4.107000000
H    -4.506000000     1.148000000     3.521000000
C    -3.246000000     1.565000000     5.207000000
O    -3.875000000     2.715000000     5.671000000
C    -2.264000000     1.095000000     6.100000000
H    -2.042000000     1.637000000     7.015000000
C    -1.440000000     0.103000000     5.632000000
O    -0.383000000    -0.340000000     6.355000000
C     0.124000000    -1.661000000     6.313000000
C     1.398000000    -1.961000000     5.797000000
H     2.034000000    -1.193000000     5.366000000
C    -0.627000000    -2.750000000     6.776000000
H    -1.543000000    -2.407000000     7.251000000
C    -0.228000000    -4.057000000     6.745000000
H    -0.971000000    -4.777000000     7.079000000
C     1.030000000    -4.357000000     6.156000000
H     1.376000000    -5.386000000     6.127000000
C     1.861000000    -3.283000000     5.717000000
O     3.054000000    -3.560000000     5.146000000
C     3.212000000    -3.400000000     3.815000000
C     4.406000000    -2.820000000     3.467000000
H     5.171000000    -2.572000000     4.198000000
C     4.643000000    -2.601000000     2.121000000
O     5.845000000    -1.966000000     1.752000000
C     6.529000000    -1.933000000     0.569000000
C     6.403000000    -0.890000000    -0.316000000
H     5.696000000    -0.105000000    -0.063000000
C     7.503000000    -2.899000000     0.301000000
H     7.654000000    -3.657000000     1.066000000
C     8.255000000    -2.832000000    -0.907000000
H     9.122000000    -3.465000000    -1.077000000
C     7.988000000    -1.786000000    -1.840000000
H     8.392000000    -1.719000000    -2.847000000
C     6.978000000    -0.902000000    -1.574000000
O     6.791000000     0.108000000    -2.573000000
C     5.559000000     0.744000000    -2.817000000
C     5.553000000     2.130000000    -2.857000000
H     6.412000000     2.742000000    -2.594000000
C     4.400000000     2.745000000    -3.123000000
O     4.436000000     4.128000000    -2.817000000
C     3.390000000     5.023000000    -3.105000000
C     2.524000000     5.417000000    -2.113000000
H     2.696000000     5.077000000    -1.095000000
C     3.198000000     5.440000000    -4.387000000
H     3.829000000     5.032000000    -5.173000000
C     2.082000000     6.232000000    -4.728000000
H     1.928000000     6.484000000    -5.774000000
C     1.200000000     6.681000000    -3.754000000
H     0.280000000     7.162000000    -4.075000000
C     1.411000000     6.237000000    -2.397000000
O     0.495000000     6.664000000    -1.389000000
C    -0.553000000     5.915000000    -0.762000000
C    -0.982000000     6.060000000     0.526000000
H    -0.627000000     6.948000000     1.044000000
C    -1.949000000     5.312000000     1.108000000
O    -2.296000000     5.669000000     2.430000000
C    -3.386000000     5.136000000     3.069000000
C    -4.685000000     5.297000000     2.577000000
H    -4.825000000     5.886000000     1.674000000
C    -5.800000000     4.712000000     3.178000000
H    -6.801000000     4.856000000     2.779000000
C    -5.476000000     3.861000000     4.285000000
H    -6.268000000     3.292000000     4.767000000
C    -4.144000000     3.725000000     4.729000000
C    -3.135000000     4.343000000     4.098000000
H    -2.110000000     4.028000000     4.277000000
C     1.529000000    -0.088000000     2.187000000
H     1.702000000    -0.604000000     3.129000000
C     0.680000000    -0.697000000     1.282000000
H     0.122000000    -1.562000000     1.631000000
C     0.460000000    -0.200000000     0.033000000
C    -0.646000000    -0.821000000    -0.846000000
H    -1.637000000    -0.440000000    -0.589000000
H    -0.490000000    -0.483000000    -1.872000000
H    -0.620000000    -1.910000000    -0.774000000
C     1.216000000     0.913000000    -0.372000000
H     1.121000000     1.305000000    -1.382000000
C     2.167000000     1.558000000     0.473000000
H     2.733000000     2.412000000     0.111000000
C     2.307000000     1.036000000     1.758000000
C     3.378000000     1.597000000     2.734000000
O     4.116000000     2.520000000     2.447000000
O     3.623000000     1.063000000     3.789000000
O     6.376000000     0.671000000     4.005000000
H     5.441000000     0.744000000     3.816000000
H     6.432000000     0.004000000     4.689000000
O     1.940000000     1.863000000     5.727000000
H     1.070000000     1.676000000     5.373000000
H     2.542000000     1.633000000     5.019000000
O     3.368000000     5.287000000     2.330000000
H     3.604000000     4.362000000     2.248000000
H     2.420000000     5.282000000     2.461000000
O     5.643000000     1.321000000     7.586000000
H     5.410000000     1.482000000     8.500000000
H     6.566000000     1.566000000     7.526000000
O     4.585000000     7.770000000     1.249000000
H     4.363000000     8.066000000     2.131000000
H     4.476000000     6.819000000     1.281000000
O     7.825000000     5.861000000     3.069000000
H     7.527000000     5.158000000     2.492000000
H     7.082000000     6.026000000     3.649000000
O     7.882000000     2.153000000     6.107000000
H     8.706000000     1.665000000     6.085000000
H     7.619000000     2.220000000     5.189000000
O     2.463000000     4.625000000     6.197000000
H     3.141000000     4.957000000     5.608000000
H     2.479000000     3.677000000     6.070000000
O     6.556000000     3.679000000     1.819000000
H     6.276000000     4.057000000     0.985000000
H     5.769000000     3.263000000     2.170000000
O     4.870000000     3.435000000     4.917000000
H     4.450000000     3.207000000     4.087000000
H     5.084000000     2.592000000     5.316000000
O     4.265000000     7.416000000     3.867000000
H     4.772000000     6.977000000     4.550000000
H     3.907000000     6.703000000     3.339000000
O    -0.111000000     2.307000000     2.944000000
H     0.441000000     1.732000000     2.413000000
H    -0.823000000     1.743000000     3.245000000
O     2.176000000     2.001000000     8.501000000
H     2.142000000     1.925000000     7.548000000
H     2.246000000     1.099000000     8.812000000
O     8.332000000     1.723000000     2.274000000
H     7.704000000     1.259000000     2.828000000
H     7.877000000     2.524000000     2.015000000
O     8.154000000    -2.063000000     3.415000000
H     7.247000000    -2.186000000     3.137000000
H     8.119000000    -1.329000000     4.029000000
O     5.845000000     4.772000000    -0.450000000
H     5.280000000     4.506000000    -1.176000000
H     6.397000000     5.463000000    -0.817000000
O     6.093000000     5.887000000     5.367000000
H     5.713000000     5.042000000     5.128000000
H     6.801000000     5.668000000     5.973000000
O     4.552000000    -0.459000000     5.958000000
H     4.013000000     0.012000000     5.323000000
H     4.716000000     0.178000000     6.653000000
O     0.899000000     4.857000000     3.619000000
H     0.465000000     4.869000000     4.472000000
H     0.481000000     4.136000000     3.148000000
