218
-1465.26420
C     3.798000000    -3.061000000     0.468000000
H     4.033000000    -2.753000000    -0.548000000
C     2.703000000    -3.855000000     0.742000000
C     2.468000000    -4.282000000     2.032000000
H     1.580000000    -4.870000000     2.252000000
C     1.611000000    -4.025000000    -0.339000000
O     2.166000000    -4.468000000    -1.650000000
H     1.139000000    -3.036000000    -0.433000000
O     0.582000000    -4.976000000     0.090000000
C    -0.672000000    -4.523000000    -0.041000000
C    -1.214000000    -3.940000000     1.050000000
H    -0.688000000    -3.841000000     1.996000000
C    -2.472000000    -3.381000000     1.027000000
O    -2.751000000    -2.743000000     2.208000000
C    -3.248000000    -3.476000000    -0.059000000
C    -4.726000000    -3.011000000     0.002000000
H    -5.318000000    -3.552000000    -0.739000000
C    -4.784000000    -1.523000000    -0.197000000
C    -4.801000000    -1.035000000    -1.499000000
H    -4.976000000    -1.706000000    -2.337000000
H    -5.245000000    -3.266000000     0.928000000
C    -2.710000000    -4.078000000    -1.230000000
H    -3.266000000    -4.025000000    -2.162000000
C    -1.387000000    -4.604000000    -1.212000000
C    -0.702000000    -5.238000000    -2.444000000
H    -1.460000000    -5.511000000    -3.182000000
H    -0.236000000    -6.212000000    -2.284000000
C     0.148000000    -4.086000000    -3.069000000
C    -0.397000000    -3.349000000    -4.123000000
H    -1.399000000    -3.610000000    -4.455000000
C     1.507000000    -3.853000000    -2.709000000
C     2.252000000    -2.806000000    -3.286000000
H     3.311000000    -2.678000000    -3.077000000
C     1.559000000    -1.994000000    -4.186000000
O     2.292000000    -0.915000000    -4.559000000
C     1.903000000     0.394000000    -3.973000000
C     3.112000000     1.294000000    -3.694000000
C     2.886000000     2.690000000    -3.673000000
H     1.865000000     3.004000000    -3.875000000
C     4.320000000     0.804000000    -3.274000000
H     4.575000000    -0.245000000    -3.401000000
O     1.016000000     1.029000000    -4.983000000
H     1.310000000     0.206000000    -3.065000000
C     0.262000000    -2.216000000    -4.610000000
C    -0.398000000    -1.324000000    -5.662000000
H    -1.150000000    -1.947000000    -6.151000000
H     0.362000000    -0.982000000    -6.367000000
C    -1.101000000    -0.134000000    -4.997000000
C    -2.417000000    -0.204000000    -4.476000000
H    -2.953000000    -1.141000000    -4.605000000
C    -0.392000000     1.011000000    -4.724000000
C    -0.940000000     2.085000000    -4.036000000
H    -0.441000000     3.050000000    -3.995000000
C    -2.216000000     1.959000000    -3.521000000
O    -2.682000000     2.953000000    -2.698000000
C    -2.845000000     2.838000000    -1.213000000
C    -2.244000000     3.984000000    -0.378000000
C    -0.899000000     4.350000000    -0.583000000
H    -0.404000000     4.173000000    -1.534000000
C    -2.964000000     4.486000000     0.665000000
H    -3.996000000     4.203000000     0.858000000
O    -4.248000000     2.631000000    -0.982000000
H    -2.308000000     1.931000000    -0.899000000
C    -2.965000000     0.808000000    -3.667000000
C    -4.441000000     0.780000000    -3.279000000
H    -5.035000000     0.056000000    -3.841000000
H    -4.811000000     1.804000000    -3.356000000
C    -4.661000000     0.362000000    -1.836000000
C    -4.502000000     1.272000000    -0.792000000
C    -4.575000000     0.788000000     0.515000000
H    -4.266000000     1.443000000     1.326000000
C    -4.613000000    -0.582000000     0.778000000
O    -4.279000000    -0.941000000     2.075000000
C    -2.899000000    -1.346000000     2.369000000
H    -2.386000000    -0.776000000     1.580000000
C    -2.347000000    -0.819000000     3.733000000
C    -1.457000000    -1.561000000     4.495000000
H    -1.084000000    -2.521000000     4.146000000
C    -2.526000000     0.517000000     4.178000000
H    -3.133000000     1.178000000     3.565000000
C    -2.154000000     0.959000000     5.466000000
O    -2.560000000     2.172000000     5.880000000
C    -1.625000000    -0.016000000     6.306000000
H    -1.369000000     0.211000000     7.338000000
C    -1.239000000    -1.254000000     5.855000000
O    -0.577000000    -2.109000000     6.710000000
C     0.046000000    -3.283000000     6.249000000
C     1.182000000    -3.170000000     5.383000000
H     1.548000000    -2.211000000     5.025000000
C    -0.300000000    -4.544000000     6.816000000
H    -1.122000000    -4.498000000     7.526000000
C     0.483000000    -5.675000000     6.504000000
H     0.286000000    -6.580000000     7.074000000
C     1.555000000    -5.633000000     5.618000000
H     2.186000000    -6.481000000     5.362000000
C     1.851000000    -4.386000000     5.017000000
O     3.014000000    -4.291000000     4.320000000
C     3.289000000    -3.951000000     3.038000000
C     4.378000000    -3.188000000     2.817000000
H     5.110000000    -2.846000000     3.543000000
C     4.586000000    -2.677000000     1.543000000
O     5.653000000    -1.745000000     1.379000000
C     6.314000000    -1.453000000     0.173000000
C     6.146000000    -0.188000000    -0.480000000
H     5.591000000     0.609000000     0.009000000
C     7.038000000    -2.408000000    -0.556000000
H     7.043000000    -3.408000000    -0.129000000
C     7.699000000    -2.155000000    -1.789000000
H     8.269000000    -2.915000000    -2.318000000
C     7.551000000    -0.920000000    -2.332000000
H     7.913000000    -0.637000000    -3.317000000
C     6.795000000     0.052000000    -1.716000000
O     6.533000000     1.268000000    -2.469000000
C     5.330000000     1.633000000    -2.919000000
C     5.155000000     3.024000000    -2.978000000
H     5.987000000     3.681000000    -2.737000000
C     3.927000000     3.550000000    -3.414000000
O     3.799000000     4.856000000    -3.687000000
C     2.850000000     5.665000000    -3.101000000
C     2.431000000     5.400000000    -1.777000000
H     2.887000000     4.557000000    -1.265000000
C     2.227000000     6.733000000    -3.755000000
H     2.587000000     6.758000000    -4.780000000
C     1.250000000     7.572000000    -3.175000000
H     0.816000000     8.458000000    -3.631000000
C     0.893000000     7.237000000    -1.837000000
H     0.059000000     7.769000000    -1.385000000
C     1.443000000     6.153000000    -1.165000000
O     0.946000000     5.813000000     0.040000000
C    -0.311000000     5.303000000     0.281000000
C    -1.066000000     5.798000000     1.333000000
H    -0.652000000     6.582000000     1.963000000
C    -2.334000000     5.312000000     1.599000000
O    -2.988000000     5.770000000     2.656000000
C    -3.500000000     4.982000000     3.653000000
C    -4.712000000     5.242000000     4.231000000
H    -5.365000000     6.033000000     3.871000000
C    -5.242000000     4.551000000     5.288000000
H    -6.200000000     4.802000000     5.736000000
C    -4.489000000     3.483000000     5.891000000
H    -4.820000000     3.015000000     6.815000000
C    -3.245000000     3.133000000     5.262000000
C    -2.760000000     3.844000000     4.167000000
H    -1.771000000     3.592000000     3.791000000
C     2.035000000    -0.539000000     1.942000000
H     2.034000000    -0.995000000     2.929000000
C     1.011000000    -0.843000000     1.073000000
H     0.318000000    -1.628000000     1.366000000
C     0.734000000    -0.063000000    -0.073000000
C    -0.375000000    -0.487000000    -1.004000000
H    -1.202000000    -1.084000000    -0.614000000
H    -0.766000000     0.423000000    -1.466000000
H     0.068000000    -1.007000000    -1.856000000
C     1.699000000     0.902000000    -0.367000000
H     1.581000000     1.521000000    -1.253000000
C     2.745000000     1.261000000     0.484000000
H     3.427000000     2.086000000     0.293000000
C     2.891000000     0.568000000     1.726000000
C     3.892000000     0.990000000     2.797000000
O     4.683000000     1.856000000     2.518000000
O     3.773000000     0.518000000     3.928000000
O     7.374000000     0.847000000     2.760000000
H     7.836000000     0.941000000     1.927000000
H     6.521000000     1.254000000     2.608000000
O     1.191000000     1.099000000     5.104000000
H     0.751000000     1.521000000     4.366000000
H     2.005000000     0.757000000     4.733000000
O     2.546000000     4.506000000     3.727000000
H     1.778000000     3.935000000     3.753000000
H     2.800000000     4.608000000     4.644000000
O     6.738000000     3.855000000     7.296000000
H     6.453000000     3.205000000     7.939000000
H     7.348000000     4.415000000     7.776000000
O     5.203000000     6.910000000     2.592000000
H     5.334000000     6.806000000     3.535000000
H     4.922000000     6.045000000     2.293000000
O     7.632000000    -4.133000000     3.424000000
H     8.374000000    -4.429000000     3.952000000
H     7.575000000    -3.193000000     3.595000000
O     8.352000000     2.254000000     5.320000000
H     8.111000000     2.042000000     4.418000000
H     7.619000000     2.775000000     5.647000000
O     7.599000000    -0.630000000     6.649000000
H     6.956000000     0.079000000     6.667000000
H     7.234000000    -1.299000000     7.228000000
O     5.684000000     5.795000000    -0.865000000
H     5.166000000     6.527000000    -1.198000000
H     5.039000000     5.199000000    -0.484000000
O     7.635000000     6.105000000     5.440000000
H     7.223000000     5.688000000     4.683000000
H     7.427000000     5.528000000     6.174000000
O     4.142000000     3.133000000     5.686000000
H     4.463000000     2.533000000     6.359000000
H     4.218000000     2.639000000     4.869000000
O     0.346000000     2.259000000     2.601000000
H     0.883000000     2.814000000     2.035000000
H     0.105000000     1.515000000     2.049000000
O     3.192000000    -1.418000000     7.574000000
H     2.933000000    -2.337000000     7.651000000
H     2.413000000    -0.928000000     7.837000000
O     1.183000000     0.434000000     7.828000000
H     1.385000000     1.322000000     8.124000000
H     1.137000000     0.505000000     6.875000000
O     8.966000000     1.734000000     0.680000000
H     8.413000000     2.250000000     0.093000000
H     9.775000000     1.595000000     0.187000000
O     7.572000000    -1.496000000     3.938000000
H     7.455000000    -1.159000000     4.826000000
H     7.497000000    -0.723000000     3.378000000
O     6.012000000     4.477000000     4.062000000
H     5.527000000     4.198000000     3.285000000
H     5.492000000     4.152000000     4.798000000
O     4.779000000     0.509000000     6.288000000
H     4.444000000     0.615000000     5.397000000
H     4.228000000    -0.173000000     6.671000000
O     4.456000000     4.446000000     1.600000000
H     4.752000000     3.553000000     1.778000000
H     3.626000000     4.521000000     2.071000000
