218
-1458.57360
C     3.166000000    -4.638000000    -0.083000000
H     3.054000000    -4.402000000    -1.138000000
C     1.917000000    -4.647000000     0.626000000
C     2.023000000    -4.709000000     1.994000000
H     1.122000000    -4.634000000     2.597000000
C     0.594000000    -4.366000000    -0.049000000
O     0.455000000    -4.983000000    -1.355000000
H     0.438000000    -3.277000000    -0.076000000
O    -0.448000000    -4.930000000     0.715000000
C    -1.651000000    -4.294000000     0.793000000
C    -1.877000000    -3.571000000     1.937000000
H    -1.121000000    -3.606000000     2.718000000
C    -3.011000000    -2.773000000     2.037000000
O    -3.147000000    -2.035000000     3.200000000
C    -3.949000000    -2.694000000     1.004000000
C    -5.170000000    -1.766000000     1.053000000
H    -5.974000000    -2.159000000     0.427000000
C    -4.844000000    -0.322000000     0.635000000
C    -4.880000000     0.133000000    -0.653000000
H    -5.330000000    -0.526000000    -1.391000000
H    -5.650000000    -1.626000000     2.023000000
C    -3.795000000    -3.529000000    -0.113000000
H    -4.431000000    -3.508000000    -0.994000000
C    -2.616000000    -4.277000000    -0.235000000
C    -2.401000000    -4.963000000    -1.619000000
H    -3.299000000    -5.112000000    -2.223000000
H    -1.942000000    -5.945000000    -1.488000000
C    -1.451000000    -4.087000000    -2.517000000
C    -1.987000000    -3.112000000    -3.333000000
H    -3.058000000    -3.104000000    -3.522000000
C    -0.060000000    -4.176000000    -2.357000000
C     0.755000000    -3.358000000    -3.154000000
H     1.842000000    -3.399000000    -3.154000000
C     0.236000000    -2.334000000    -3.937000000
O     1.129000000    -1.437000000    -4.458000000
C     1.025000000    -0.069000000    -3.938000000
C     2.368000000     0.579000000    -3.578000000
C     2.603000000     1.953000000    -3.735000000
H     1.878000000     2.588000000    -4.237000000
C     3.346000000    -0.200000000    -2.975000000
H     3.109000000    -1.261000000    -2.980000000
O     0.187000000     0.720000000    -4.831000000
H     0.521000000    -0.153000000    -2.963000000
C    -1.163000000    -2.252000000    -4.041000000
C    -1.802000000    -1.251000000    -4.985000000
H    -2.644000000    -1.704000000    -5.512000000
H    -1.177000000    -1.105000000    -5.869000000
C    -2.039000000     0.079000000    -4.332000000
C    -3.264000000     0.398000000    -3.691000000
H    -4.110000000    -0.285000000    -3.693000000
C    -1.048000000     1.042000000    -4.384000000
C    -1.250000000     2.275000000    -3.787000000
H    -0.473000000     3.026000000    -3.908000000
C    -2.492000000     2.556000000    -3.177000000
O    -2.458000000     3.610000000    -2.412000000
C    -2.206000000     3.458000000    -0.921000000
C    -1.204000000     4.383000000    -0.324000000
C    -0.435000000     5.127000000    -1.194000000
H    -0.371000000     5.058000000    -2.277000000
C    -1.012000000     4.577000000     1.100000000
H    -1.642000000     4.034000000     1.800000000
O    -3.529000000     3.524000000    -0.219000000
H    -1.708000000     2.504000000    -0.695000000
C    -3.497000000     1.653000000    -3.149000000
C    -4.787000000     1.933000000    -2.297000000
H    -5.684000000     1.526000000    -2.768000000
H    -4.969000000     3.008000000    -2.351000000
C    -4.577000000     1.451000000    -0.896000000
C    -4.104000000     2.275000000     0.073000000
C    -4.009000000     1.848000000     1.382000000
H    -3.509000000     2.483000000     2.109000000
C    -4.354000000     0.542000000     1.653000000
O    -4.143000000     0.021000000     2.876000000
C    -2.858000000    -0.588000000     3.076000000
H    -2.258000000    -0.411000000     2.171000000
C    -1.916000000    -0.093000000     4.219000000
C    -0.929000000    -0.933000000     4.642000000
H    -0.794000000    -1.936000000     4.244000000
C    -2.158000000     1.085000000     4.823000000
H    -2.925000000     1.743000000     4.422000000
C    -1.238000000     1.578000000     5.714000000
O    -1.635000000     2.777000000     6.269000000
C    -0.295000000     0.740000000     6.289000000
H     0.434000000     1.087000000     7.017000000
C    -0.201000000    -0.559000000     5.776000000
O     0.779000000    -1.359000000     6.287000000
C     1.013000000    -2.641000000     5.949000000
C     2.070000000    -2.962000000     5.186000000
H     2.711000000    -2.237000000     4.692000000
C     0.113000000    -3.620000000     6.398000000
H    -0.707000000    -3.353000000     7.059000000
C     0.338000000    -5.030000000     6.141000000
H    -0.368000000    -5.820000000     6.383000000
C     1.495000000    -5.290000000     5.350000000
H     1.739000000    -6.287000000     4.991000000
C     2.332000000    -4.301000000     4.901000000
O     3.361000000    -4.614000000     4.083000000
C     3.265000000    -4.656000000     2.701000000
C     4.415000000    -4.733000000     1.958000000
H     5.375000000    -4.732000000     2.468000000
C     4.408000000    -4.740000000     0.585000000
O     5.579000000    -4.810000000    -0.110000000
C     5.885000000    -4.016000000    -1.156000000
C     5.609000000    -2.660000000    -1.094000000
H     5.179000000    -2.302000000    -0.162000000
C     6.347000000    -4.515000000    -2.352000000
H     6.523000000    -5.585000000    -2.414000000
C     6.537000000    -3.728000000    -3.528000000
H     6.909000000    -4.181000000    -4.443000000
C     6.281000000    -2.410000000    -3.414000000
H     6.466000000    -1.795000000    -4.292000000
C     5.712000000    -1.857000000    -2.224000000
O     5.570000000    -0.508000000    -2.088000000
C     4.560000000     0.242000000    -2.632000000
C     4.847000000     1.591000000    -2.817000000
H     5.837000000     1.947000000    -2.543000000
C     3.908000000     2.412000000    -3.483000000
O     4.241000000     3.745000000    -3.739000000
C     3.365000000     4.825000000    -3.880000000
C     2.762000000     5.285000000    -2.711000000
H     2.991000000     4.903000000    -1.720000000
C     2.976000000     5.331000000    -5.121000000
H     3.425000000     4.856000000    -5.989000000
C     1.989000000     6.310000000    -5.191000000
H     1.706000000     6.592000000    -6.202000000
C     1.543000000     6.886000000    -3.997000000
H     0.882000000     7.744000000    -4.089000000
C     1.865000000     6.319000000    -2.772000000
O     1.226000000     6.824000000    -1.660000000
C     0.494000000     6.049000000    -0.775000000
C     0.710000000     6.190000000     0.556000000
H     1.426000000     6.918000000     0.930000000
C    -0.061000000     5.523000000     1.486000000
O     0.188000000     5.621000000     2.878000000
C    -0.805000000     5.285000000     3.749000000
C    -1.850000000     6.190000000     3.988000000
H    -1.869000000     7.051000000     3.325000000
C    -2.775000000     5.976000000     4.971000000
H    -3.511000000     6.751000000     5.169000000
C    -2.661000000     4.842000000     5.731000000
H    -3.409000000     4.654000000     6.497000000
C    -1.674000000     3.882000000     5.534000000
C    -0.664000000     4.205000000     4.593000000
H     0.218000000     3.569000000     4.594000000
C     1.225000000     0.575000000     2.261000000
H     1.301000000     0.241000000     3.293000000
C     0.451000000    -0.100000000     1.371000000
H    -0.073000000    -1.007000000     1.660000000
C     0.157000000     0.432000000     0.103000000
C    -0.844000000    -0.294000000    -0.770000000
H    -1.243000000     0.394000000    -1.518000000
H    -0.367000000    -1.155000000    -1.242000000
H    -1.704000000    -0.563000000    -0.153000000
C     0.935000000     1.521000000    -0.345000000
H     0.853000000     1.754000000    -1.404000000
C     1.638000000     2.267000000     0.554000000
H     2.210000000     3.137000000     0.242000000
C     1.764000000     1.789000000     1.891000000
C     2.523000000     2.682000000     2.895000000
O     3.319000000     3.479000000     2.552000000
O     2.321000000     2.511000000     4.046000000
O     5.434000000     3.045000000     0.885000000
H     4.702000000     3.382000000     1.402000000
H     5.762000000     3.808000000     0.410000000
O     3.403000000     6.254000000     5.997000000
H     3.969000000     6.489000000     6.732000000
H     3.601000000     5.332000000     5.828000000
O     2.485000000     3.620000000     6.395000000
H     3.433000000     3.499000000     6.336000000
H     2.156000000     3.354000000     5.537000000
O     2.509000000     0.004000000     8.334000000
H     2.622000000    -0.042000000     7.384000000
H     2.476000000     0.942000000     8.525000000
O     3.238000000     6.077000000     2.703000000
H     3.216000000     5.120000000     2.702000000
H     2.318000000     6.338000000     2.741000000
O     6.922000000     3.187000000     3.360000000
H     7.074000000     2.312000000     3.718000000
H     6.614000000     3.030000000     2.468000000
O     8.239000000    -0.398000000     1.648000000
H     7.344000000    -0.280000000     1.330000000
H     8.666000000    -0.926000000     0.973000000
O     6.484000000     5.399000000    -0.226000000
H     5.859000000     6.100000000    -0.411000000
H     7.261000000     5.851000000     0.101000000
O     0.690000000     6.347000000     7.588000000
H     0.894000000     6.794000000     8.409000000
H     1.464000000     5.813000000     7.407000000
O     6.778000000     6.052000000     4.430000000
H     6.574000000     5.395000000     3.765000000
H     6.040000000     6.013000000     5.039000000
O     5.854000000    -0.483000000     5.722000000
H     5.227000000    -0.337000000     5.014000000
H     5.398000000    -0.190000000     6.511000000
O     4.964000000     0.502000000     0.580000000
H     5.134000000     1.443000000     0.548000000
H     4.695000000     0.276000000    -0.310000000
O     1.010000000     7.410000000     5.102000000
H     0.595000000     7.162000000     5.928000000
H     1.885000000     7.025000000     5.147000000
O     3.007000000     2.805000000     8.869000000
H     2.803000000     3.264000000     8.054000000
H     3.860000000     2.402000000     8.710000000
O     3.284000000     0.423000000     5.268000000
H     2.756000000     1.128000000     4.893000000
H     3.414000000    -0.190000000     4.545000000
O     4.030000000     8.578000000     3.030000000
H     3.752000000     7.669000000     2.915000000
H     4.948000000     8.584000000     2.759000000
O     3.995000000    -0.878000000     2.911000000
H     3.112000000    -0.757000000     2.562000000
H     4.565000000    -0.440000000     2.279000000
O     5.229000000     2.010000000     7.685000000
H     5.797000000     2.743000000     7.923000000
H     5.370000000     1.892000000     6.746000000
O     4.772000000     3.674000000     5.188000000
H     5.693000000     3.666000000     4.929000000
H     4.293000000     3.508000000     4.376000000
