218
-1461.10038
C     3.412000000    -4.183000000     0.807000000
H     3.356000000    -4.330000000    -0.268000000
C     2.247000000    -4.260000000     1.604000000
C     2.357000000    -3.937000000     2.958000000
H     1.523000000    -3.770000000     3.634000000
C     0.863000000    -4.327000000     1.021000000
O     0.841000000    -5.015000000    -0.222000000
H     0.599000000    -3.288000000     0.776000000
O    -0.132000000    -4.814000000     1.900000000
C    -1.328000000    -4.053000000     1.897000000
C    -1.484000000    -3.110000000     2.888000000
H    -0.785000000    -3.000000000     3.713000000
C    -2.719000000    -2.369000000     2.896000000
O    -2.864000000    -1.315000000     3.752000000
C    -3.698000000    -2.524000000     1.829000000
C    -4.972000000    -1.679000000     1.598000000
H    -5.638000000    -2.195000000     0.904000000
C    -4.722000000    -0.298000000     0.920000000
C    -5.098000000    -0.142000000    -0.413000000
H    -5.449000000    -0.966000000    -1.030000000
H    -5.495000000    -1.577000000     2.551000000
C    -3.467000000    -3.448000000     0.826000000
H    -4.203000000    -3.632000000     0.047000000
C    -2.247000000    -4.191000000     0.815000000
C    -2.077000000    -5.185000000    -0.269000000
H    -3.111000000    -5.317000000    -0.594000000
H    -1.675000000    -6.117000000     0.136000000
C    -1.207000000    -4.636000000    -1.398000000
C    -1.862000000    -3.993000000    -2.416000000
H    -2.929000000    -4.136000000    -2.562000000
C     0.165000000    -4.539000000    -1.265000000
C     0.901000000    -3.909000000    -2.212000000
H     1.979000000    -3.773000000    -2.217000000
C     0.248000000    -3.203000000    -3.267000000
O     1.015000000    -2.412000000    -4.055000000
C     0.946000000    -1.011000000    -3.890000000
C     2.290000000    -0.377000000    -4.064000000
C     2.510000000     0.910000000    -4.567000000
H     1.693000000     1.453000000    -5.035000000
C     3.449000000    -1.103000000    -3.641000000
H     3.417000000    -2.112000000    -3.238000000
O    -0.019000000    -0.544000000    -4.872000000
H     0.632000000    -0.726000000    -2.875000000
C    -1.142000000    -3.232000000    -3.330000000
C    -1.967000000    -2.523000000    -4.448000000
H    -2.935000000    -3.028000000    -4.420000000
H    -1.489000000    -2.787000000    -5.393000000
C    -2.233000000    -1.030000000    -4.221000000
C    -3.433000000    -0.596000000    -3.766000000
H    -4.149000000    -1.407000000    -3.666000000
C    -1.228000000    -0.090000000    -4.460000000
C    -1.468000000     1.256000000    -4.111000000
H    -0.674000000     1.990000000    -4.221000000
C    -2.652000000     1.682000000    -3.460000000
O    -2.714000000     2.934000000    -2.937000000
C    -2.500000000     3.047000000    -1.545000000
C    -1.561000000     4.273000000    -1.217000000
C    -0.504000000     4.551000000    -2.077000000
H    -0.357000000     3.939000000    -2.963000000
C    -1.649000000     4.967000000     0.002000000
H    -2.444000000     4.706000000     0.696000000
O    -3.768000000     3.240000000    -0.943000000
H    -2.032000000     2.138000000    -1.141000000
C    -3.663000000     0.733000000    -3.285000000
C    -4.999000000     1.084000000    -2.593000000
H    -5.905000000     0.537000000    -2.860000000
H    -5.199000000     2.101000000    -2.936000000
C    -4.840000000     1.047000000    -1.117000000
C    -4.287000000     2.132000000    -0.366000000
C    -4.035000000     2.026000000     0.991000000
H    -3.647000000     2.839000000     1.600000000
C    -4.226000000     0.783000000     1.628000000
O    -3.798000000     0.699000000     2.938000000
C    -2.567000000    -0.025000000     3.281000000
H    -1.955000000    -0.197000000     2.383000000
C    -1.744000000     0.828000000     4.262000000
C    -0.564000000     0.225000000     4.772000000
H    -0.325000000    -0.719000000     4.288000000
C    -2.075000000     2.117000000     4.694000000
H    -3.007000000     2.559000000     4.350000000
C    -1.183000000     2.920000000     5.416000000
O    -1.449000000     4.235000000     5.686000000
C    -0.041000000     2.288000000     5.897000000
H     0.654000000     2.856000000     6.511000000
C     0.184000000     0.922000000     5.690000000
O     1.510000000     0.411000000     5.907000000
C     1.736000000    -0.858000000     6.248000000
C     2.650000000    -1.470000000     5.465000000
H     3.134000000    -0.815000000     4.744000000
C     0.937000000    -1.569000000     7.109000000
H     0.193000000    -1.015000000     7.676000000
C     1.203000000    -2.937000000     7.362000000
H     0.644000000    -3.393000000     8.175000000
C     2.148000000    -3.572000000     6.657000000
H     2.314000000    -4.629000000     6.846000000
C     2.911000000    -2.839000000     5.654000000
O     3.781000000    -3.581000000     4.854000000
C     3.623000000    -3.729000000     3.541000000
C     4.841000000    -3.961000000     2.798000000
H     5.855000000    -3.899000000     3.185000000
C     4.680000000    -3.988000000     1.374000000
O     5.826000000    -3.995000000     0.581000000
C     5.868000000    -3.804000000    -0.743000000
C     5.838000000    -2.481000000    -1.205000000
H     5.872000000    -1.678000000    -0.473000000
C     5.932000000    -4.865000000    -1.638000000
H     5.955000000    -5.891000000    -1.278000000
C     6.066000000    -4.650000000    -2.977000000
H     6.143000000    -5.515000000    -3.630000000
C     5.973000000    -3.362000000    -3.488000000
H     5.852000000    -3.180000000    -4.552000000
C     5.866000000    -2.306000000    -2.586000000
O     5.832000000    -1.023000000    -3.151000000
C     4.682000000    -0.378000000    -3.617000000
C     4.903000000     0.884000000    -4.174000000
H     5.878000000     1.349000000    -4.292000000
C     3.766000000     1.535000000    -4.592000000
O     3.906000000     2.766000000    -5.248000000
C     3.067000000     3.804000000    -5.135000000
C     2.812000000     4.306000000    -3.827000000
H     3.387000000     3.944000000    -2.978000000
C     2.424000000     4.362000000    -6.245000000
H     2.613000000     3.971000000    -7.241000000
C     1.447000000     5.303000000    -6.020000000
H     0.886000000     5.723000000    -6.851000000
C     1.114000000     5.741000000    -4.734000000
H     0.380000000     6.519000000    -4.543000000
C     1.852000000     5.269000000    -3.661000000
O     1.563000000     5.748000000    -2.439000000
C     0.426000000     5.527000000    -1.719000000
C     0.332000000     6.104000000    -0.444000000
H     1.203000000     6.682000000    -0.148000000
C    -0.719000000     5.884000000     0.379000000
O    -0.817000000     6.566000000     1.544000000
C    -1.608000000     6.262000000     2.649000000
C    -2.803000000     6.808000000     2.757000000
H    -3.172000000     7.423000000     1.941000000
C    -3.686000000     6.414000000     3.748000000
H    -4.678000000     6.848000000     3.847000000
C    -3.134000000     5.647000000     4.732000000
H    -3.775000000     5.348000000     5.557000000
C    -1.873000000     5.083000000     4.659000000
C    -1.137000000     5.353000000     3.524000000
H    -0.174000000     4.879000000     3.355000000
C     2.421000000    -0.309000000     1.437000000
H     3.310000000    -0.930000000     1.519000000
C     1.347000000    -0.810000000     0.758000000
H     1.443000000    -1.784000000     0.285000000
C     0.167000000    -0.088000000     0.585000000
C    -0.939000000    -0.690000000    -0.159000000
H    -0.810000000    -1.773000000    -0.215000000
H    -1.919000000    -0.416000000     0.237000000
H    -0.870000000    -0.384000000    -1.205000000
C     0.146000000     1.272000000     1.090000000
H    -0.706000000     1.921000000     0.908000000
C     1.221000000     1.799000000     1.859000000
H     1.220000000     2.842000000     2.166000000
C     2.300000000     0.916000000     2.084000000
C     3.583000000     1.417000000     2.855000000
O     3.583000000     2.554000000     3.324000000
O     4.599000000     0.772000000     2.872000000
O     3.721000000     4.678000000     1.349000000
H     2.840000000     5.054000000     1.330000000
H     3.751000000     4.180000000     2.166000000
O     4.301000000     0.937000000     6.250000000
H     5.141000000     0.489000000     6.348000000
H     4.400000000     1.461000000     5.455000000
O     6.357000000     0.804000000     0.931000000
H     5.728000000     0.774000000     1.652000000
H     7.095000000     1.305000000     1.277000000
O     4.669000000     2.603000000    -0.305000000
H     4.544000000     3.230000000     0.408000000
H     5.055000000     1.835000000     0.116000000
O     5.778000000     3.843000000     7.239000000
H     4.946000000     3.415000000     7.444000000
H     5.933000000     3.637000000     6.317000000
O     3.524000000    -0.682000000     8.597000000
H     4.144000000    -1.354000000     8.314000000
H     3.140000000    -0.352000000     7.785000000
O     8.292000000    -2.416000000     1.625000000
H     7.572000000    -1.882000000     1.288000000
H     8.376000000    -2.154000000     2.542000000
O     7.564000000     0.748000000    -1.531000000
H     7.817000000     1.669000000    -1.597000000
H     6.959000000     0.719000000    -0.790000000
O     6.021000000     3.322000000     4.690000000
H     5.355000000     3.088000000     4.043000000
H     6.814000000     2.877000000     4.390000000
O     8.185000000     2.797000000     2.285000000
H     8.753000000     2.740000000     3.053000000
H     8.312000000     3.688000000     1.958000000
O     4.261000000     7.020000000     4.881000000
H     4.597000000     7.283000000     5.737000000
H     3.921000000     6.136000000     5.018000000
O     2.992000000     3.168000000     7.618000000
H     3.018000000     3.405000000     8.545000000
H     2.990000000     2.211000000     7.615000000
O     8.426000000     2.255000000     5.249000000
H     8.753000000     1.377000000     5.051000000
H     8.196000000     2.221000000     6.178000000
O     5.601000000    -2.354000000     7.269000000
H     5.462000000    -3.269000000     7.515000000
H     5.024000000    -2.218000000     6.518000000
O     2.832000000     4.454000000     5.189000000
H     3.196000000     3.783000000     4.612000000
H     2.744000000     4.018000000     6.037000000
O     5.738000000     5.906000000     0.012000000
H     6.511000000     5.806000000     0.568000000
H     5.047000000     5.433000000     0.476000000
O     6.194000000    -0.717000000     4.290000000
H     6.969000000    -0.828000000     3.740000000
H     5.512000000    -0.421000000     3.686000000
O     1.712000000     2.074000000    -1.519000000
H     2.661000000     2.060000000    -1.395000000
H     1.356000000     2.155000000    -0.634000000
O     7.168000000     0.087000000     6.644000000
H     6.558000000    -0.600000000     6.913000000
H     7.205000000     0.014000000     5.691000000
