218
-1474.78351
C     2.468000000    -4.150000000     0.926000000
H     2.653000000    -4.017000000    -0.137000000
C     1.203000000    -4.125000000     1.515000000
C     1.045000000    -4.092000000     2.926000000
H     0.062000000    -4.243000000     3.363000000
C     0.021000000    -4.099000000     0.582000000
O     0.260000000    -4.787000000    -0.575000000
H    -0.165000000    -3.041000000     0.342000000
O    -1.147000000    -4.532000000     1.298000000
C    -2.368000000    -3.861000000     1.124000000
C    -2.720000000    -3.076000000     2.244000000
H    -2.209000000    -3.134000000     3.202000000
C    -3.753000000    -2.104000000     2.108000000
O    -3.946000000    -1.175000000     3.085000000
C    -4.384000000    -1.975000000     0.854000000
C    -5.597000000    -0.954000000     0.594000000
H    -6.311000000    -1.472000000    -0.050000000
C    -4.962000000     0.301000000     0.018000000
C    -4.873000000     0.620000000    -1.301000000
H    -5.240000000    -0.038000000    -2.084000000
H    -6.146000000    -0.738000000     1.512000000
C    -4.074000000    -2.872000000    -0.215000000
H    -4.755000000    -2.819000000    -1.061000000
C    -3.061000000    -3.745000000    -0.112000000
C    -2.661000000    -4.595000000    -1.297000000
H    -3.532000000    -4.764000000    -1.933000000
H    -2.449000000    -5.617000000    -0.977000000
C    -1.471000000    -4.041000000    -2.087000000
C    -1.719000000    -3.446000000    -3.284000000
H    -2.738000000    -3.288000000    -3.630000000
C    -0.116000000    -4.137000000    -1.720000000
C     0.899000000    -3.519000000    -2.477000000
H     1.937000000    -3.614000000    -2.170000000
C     0.571000000    -2.827000000    -3.602000000
O     1.550000000    -2.274000000    -4.293000000
C     1.777000000    -0.905000000    -4.027000000
C     3.284000000    -0.628000000    -3.913000000
C     3.720000000     0.662000000    -3.796000000
H     3.087000000     1.515000000    -4.029000000
C     4.210000000    -1.635000000    -3.639000000
H     3.912000000    -2.680000000    -3.657000000
O     1.073000000    -0.027000000    -4.957000000
H     1.354000000    -0.728000000    -3.027000000
C    -0.823000000    -2.751000000    -3.998000000
C    -1.303000000    -1.857000000    -5.161000000
H    -2.277000000    -2.217000000    -5.498000000
H    -0.563000000    -1.901000000    -5.963000000
C    -1.298000000    -0.405000000    -4.648000000
C    -2.560000000     0.166000000    -4.251000000
H    -3.524000000    -0.334000000    -4.307000000
C    -0.181000000     0.414000000    -4.597000000
C    -0.283000000     1.690000000    -4.124000000
H     0.592000000     2.333000000    -4.070000000
C    -1.497000000     2.222000000    -3.750000000
O    -1.478000000     3.447000000    -3.068000000
C    -1.578000000     3.486000000    -1.626000000
C    -0.572000000     4.425000000    -1.082000000
C     0.710000000     4.465000000    -1.583000000
H     0.949000000     3.803000000    -2.411000000
C    -0.906000000     5.187000000     0.025000000
H    -1.812000000     5.067000000     0.613000000
O    -2.926000000     3.725000000    -1.105000000
H    -1.242000000     2.490000000    -1.303000000
C    -2.645000000     1.466000000    -3.771000000
C    -4.010000000     2.011000000    -3.293000000
H    -4.795000000     1.567000000    -3.909000000
H    -4.113000000     3.065000000    -3.558000000
C    -4.255000000     1.818000000    -1.783000000
C    -3.746000000     2.647000000    -0.812000000
C    -3.885000000     2.428000000     0.584000000
H    -3.374000000     3.094000000     1.274000000
C    -4.433000000     1.220000000     0.995000000
O    -4.392000000     1.000000000     2.326000000
C    -3.384000000     0.116000000     2.806000000
H    -2.613000000    -0.015000000     2.032000000
C    -2.617000000     0.696000000     3.970000000
C    -1.842000000    -0.055000000     4.839000000
H    -1.684000000    -1.098000000     4.576000000
C    -2.771000000     2.046000000     4.295000000
H    -3.446000000     2.732000000     3.789000000
C    -1.971000000     2.625000000     5.257000000
O    -1.990000000     3.992000000     5.593000000
C    -1.142000000     1.839000000     6.054000000
H    -0.501000000     2.283000000     6.812000000
C    -1.120000000     0.502000000     5.904000000
O    -0.127000000    -0.222000000     6.547000000
C    -0.009000000    -1.614000000     6.526000000
C     0.998000000    -2.149000000     5.824000000
H     1.792000000    -1.534000000     5.409000000
C    -0.977000000    -2.382000000     7.117000000
H    -1.837000000    -1.963000000     7.633000000
C    -0.756000000    -3.736000000     7.290000000
H    -1.448000000    -4.300000000     7.911000000
C     0.254000000    -4.375000000     6.538000000
H     0.406000000    -5.451000000     6.538000000
C     1.060000000    -3.550000000     5.752000000
O     2.190000000    -4.036000000     5.016000000
C     2.162000000    -4.090000000     3.650000000
C     3.422000000    -4.040000000     3.102000000
H     4.270000000    -4.056000000     3.781000000
C     3.562000000    -4.002000000     1.760000000
O     4.870000000    -3.927000000     1.222000000
C     5.193000000    -4.159000000    -0.095000000
C     5.621000000    -3.122000000    -0.845000000
H     5.777000000    -2.161000000    -0.362000000
C     4.976000000    -5.409000000    -0.693000000
H     4.499000000    -6.200000000    -0.121000000
C     5.501000000    -5.641000000    -1.963000000
H     5.457000000    -6.631000000    -2.409000000
C     5.885000000    -4.579000000    -2.776000000
H     6.187000000    -4.761000000    -3.805000000
C     5.994000000    -3.334000000    -2.174000000
O     6.439000000    -2.305000000    -2.972000000
C     5.558000000    -1.364000000    -3.318000000
C     5.997000000    -0.028000000    -3.350000000
H     7.018000000     0.217000000    -3.068000000
C     5.107000000     0.941000000    -3.665000000
O     5.614000000     2.230000000    -3.662000000
C     4.805000000     3.322000000    -3.738000000
C     4.309000000     3.869000000    -2.573000000
H     4.479000000     3.445000000    -1.587000000
C     4.184000000     3.653000000    -4.923000000
H     4.514000000     3.059000000    -5.772000000
C     3.304000000     4.701000000    -5.032000000
H     2.938000000     4.872000000    -6.041000000
C     2.936000000     5.411000000    -3.886000000
H     2.190000000     6.198000000    -3.952000000
C     3.379000000     4.956000000    -2.657000000
O     2.942000000     5.445000000    -1.446000000
C     1.623000000     5.349000000    -1.013000000
C     1.301000000     6.124000000     0.160000000
H     1.974000000     6.806000000     0.675000000
C     0.049000000     5.940000000     0.746000000
O    -0.142000000     6.525000000     1.950000000
C    -1.121000000     6.308000000     2.955000000
C    -2.064000000     7.293000000     3.139000000
H    -2.088000000     8.181000000     2.513000000
C    -3.116000000     7.046000000     3.976000000
H    -3.939000000     7.752000000     3.898000000
C    -3.138000000     5.968000000     4.826000000
H    -3.913000000     5.888000000     5.585000000
C    -2.113000000     5.047000000     4.725000000
C    -1.093000000     5.215000000     3.786000000
H    -0.256000000     4.532000000     3.662000000
C     2.265000000    -0.284000000     1.490000000
H     3.131000000    -0.923000000     1.640000000
C     1.285000000    -0.728000000     0.553000000
H     1.463000000    -1.651000000     0.007000000
C     0.062000000     0.051000000     0.523000000
C    -1.056000000    -0.325000000    -0.368000000
H    -1.475000000    -1.285000000    -0.061000000
H    -1.833000000     0.442000000    -0.414000000
H    -0.710000000    -0.511000000    -1.387000000
C    -0.103000000     1.125000000     1.361000000
H    -0.995000000     1.741000000     1.274000000
C     0.942000000     1.587000000     2.208000000
H     0.788000000     2.454000000     2.846000000
C     2.130000000     0.795000000     2.364000000
C     3.135000000     1.169000000     3.407000000
O     2.951000000     2.040000000     4.240000000
O     4.145000000     0.462000000     3.542000000
O     5.023000000     2.714000000     6.118000000
H     4.113000000     2.556000000     5.865000000
H     5.529000000     2.512000000     5.332000000
O     2.280000000     2.689000000     6.756000000
H     2.316000000     2.292000000     5.886000000
H     2.027000000     1.971000000     7.336000000
O     5.241000000    -3.172000000     8.014000000
H     5.501000000    -3.101000000     7.096000000
H     4.836000000    -2.328000000     8.215000000
O     7.535000000     3.160000000     2.067000000
H     6.815000000     3.675000000     1.702000000
H     7.131000000     2.647000000     2.767000000
O     8.862000000     1.299000000     0.637000000
H     8.360000000     2.009000000     1.037000000
H     9.776000000     1.534000000     0.794000000
O     8.938000000     0.578000000     3.616000000
H     9.691000000     0.785000000     3.063000000
H     9.215000000    -0.185000000     4.123000000
O     2.289000000     7.078000000     4.391000000
H     2.856000000     6.308000000     4.442000000
H     1.504000000     6.768000000     3.940000000
O     8.509000000    -1.346000000     0.655000000
H     8.911000000    -0.477000000     0.670000000
H     7.718000000    -1.253000000     1.186000000
O     6.126000000    -1.324000000     2.261000000
H     5.559000000    -0.689000000     2.700000000
H     5.554000000    -2.067000000     2.074000000
O     8.336000000     3.776000000     5.541000000
H     7.663000000     4.425000000     5.337000000
H     7.965000000     2.945000000     5.245000000
O     6.286000000     2.722000000     8.466000000
H     7.148000000     3.117000000     8.334000000
H     5.789000000     2.962000000     7.684000000
O     6.467000000     1.613000000     4.143000000
H     7.137000000     0.934000000     4.062000000
H     5.661000000     1.191000000     3.846000000
O     2.006000000     0.790000000     8.786000000
H     2.767000000     0.935000000     9.348000000
H     1.521000000     0.086000000     9.216000000
O     3.655000000     4.494000000     8.538000000
H     4.333000000     4.858000000     7.969000000
H     3.216000000     3.837000000     7.997000000
O     3.592000000     4.630000000     3.959000000
H     4.262000000     4.409000000     4.604000000
H     3.288000000     3.785000000     3.629000000
O     4.582000000    -1.190000000     5.694000000
H     5.432000000    -0.866000000     5.993000000
H     4.385000000    -0.665000000     4.918000000
O     5.383000000     4.952000000     1.292000000
H     4.717000000     5.267000000     0.682000000
H     5.385000000     5.596000000     2.000000000
O     6.621000000    -0.634000000     7.773000000
H     6.441000000     0.306000000     7.774000000
H     6.426000000    -0.917000000     8.666000000
O     0.525000000     3.588000000     8.905000000
H     1.030000000     3.577000000     9.718000000
H     1.187000000     3.585000000     8.213000000
