218
-1455.34316
C     2.996000000    -1.118000000     3.828000000
H     3.418000000    -1.775000000     3.072000000
C     1.705000000    -1.176000000     4.254000000
C     1.150000000    -0.214000000     5.156000000
H     0.084000000    -0.271000000     5.365000000
C     0.776000000    -2.133000000     3.502000000
O     1.384000000    -3.510000000     3.335000000
H     0.576000000    -1.606000000     2.557000000
O    -0.503000000    -2.233000000     4.195000000
C    -1.601000000    -2.282000000     3.391000000
C    -2.244000000    -1.105000000     3.411000000
H    -1.921000000    -0.284000000     4.046000000
C    -3.383000000    -0.893000000     2.615000000
O    -4.066000000     0.371000000     2.714000000
C    -3.944000000    -2.008000000     1.846000000
C    -5.270000000    -1.820000000     1.009000000
H    -5.814000000    -2.766000000     0.971000000
C    -4.906000000    -1.174000000    -0.357000000
C    -4.553000000    -2.034000000    -1.411000000
H    -4.604000000    -3.110000000    -1.269000000
H    -5.777000000    -1.107000000     1.662000000
C    -3.320000000    -3.217000000     1.874000000
H    -3.626000000    -4.077000000     1.285000000
C    -2.115000000    -3.358000000     2.649000000
C    -1.365000000    -4.674000000     2.681000000
H    -2.011000000    -5.477000000     2.320000000
H    -1.063000000    -4.866000000     3.713000000
C    -0.159000000    -4.549000000     1.707000000
C    -0.406000000    -4.878000000     0.402000000
H    -1.442000000    -5.121000000     0.181000000
C     1.110000000    -4.045000000     2.095000000
C     2.138000000    -3.916000000     1.168000000
H     3.076000000    -3.465000000     1.482000000
C     1.874000000    -4.231000000    -0.199000000
O     2.838000000    -3.910000000    -1.084000000
C     2.713000000    -2.736000000    -1.901000000
C     4.160000000    -2.178000000    -2.041000000
C     4.488000000    -1.412000000    -3.162000000
H     3.724000000    -1.276000000    -3.924000000
C     5.116000000    -2.227000000    -0.985000000
H     4.920000000    -2.900000000    -0.154000000
O     2.168000000    -3.068000000    -3.205000000
H     2.235000000    -1.949000000    -1.298000000
C     0.588000000    -4.737000000    -0.589000000
C     0.402000000    -5.157000000    -2.059000000
H    -0.256000000    -6.026000000    -2.002000000
H     1.362000000    -5.554000000    -2.396000000
C    -0.116000000    -3.976000000    -2.830000000
C    -1.510000000    -3.737000000    -2.877000000
H    -2.234000000    -4.388000000    -2.393000000
C     0.745000000    -3.054000000    -3.436000000
C     0.247000000    -1.962000000    -4.070000000
H     0.950000000    -1.198000000    -4.394000000
C    -1.075000000    -1.708000000    -4.184000000
O    -1.447000000    -0.549000000    -4.778000000
C    -1.894000000     0.545000000    -3.932000000
C    -1.240000000     1.901000000    -4.147000000
C     0.144000000     1.937000000    -4.496000000
H     0.680000000     1.014000000    -4.701000000
C    -1.880000000     3.096000000    -3.789000000
H    -2.857000000     3.132000000    -3.314000000
O    -3.354000000     0.635000000    -3.765000000
H    -1.510000000     0.271000000    -2.938000000
C    -1.988000000    -2.638000000    -3.589000000
C    -3.462000000    -2.378000000    -3.687000000
H    -4.048000000    -3.299000000    -3.729000000
H    -3.646000000    -1.970000000    -4.683000000
C    -3.961000000    -1.496000000    -2.555000000
C    -3.919000000    -0.050000000    -2.673000000
C    -4.424000000     0.728000000    -1.646000000
H    -4.380000000     1.795000000    -1.849000000
C    -4.814000000     0.185000000    -0.454000000
O    -5.125000000     0.925000000     0.670000000
C    -3.966000000     1.161000000     1.529000000
H    -3.043000000     0.772000000     1.074000000
C    -3.651000000     2.604000000     1.865000000
C    -2.859000000     2.912000000     3.008000000
H    -2.464000000     2.105000000     3.620000000
C    -3.986000000     3.671000000     0.998000000
H    -4.587000000     3.355000000     0.149000000
C    -3.725000000     5.001000000     1.405000000
O    -4.293000000     6.026000000     0.651000000
C    -3.062000000     5.273000000     2.563000000
H    -2.906000000     6.335000000     2.731000000
C    -2.634000000     4.234000000     3.358000000
O    -2.021000000     4.518000000     4.503000000
C    -1.599000000     3.580000000     5.426000000
C    -0.272000000     3.194000000     5.454000000
H     0.425000000     3.610000000     4.731000000
C    -2.543000000     3.051000000     6.315000000
H    -3.563000000     3.422000000     6.258000000
C    -2.174000000     2.046000000     7.161000000
H    -2.932000000     1.571000000     7.779000000
C    -0.822000000     1.588000000     7.213000000
H    -0.606000000     0.808000000     7.939000000
C     0.097000000     2.210000000     6.369000000
O     1.404000000     1.818000000     6.413000000
C     1.935000000     0.847000000     5.613000000
C     3.263000000     0.841000000     5.290000000
H     3.715000000     1.705000000     5.770000000
C     3.808000000    -0.096000000     4.374000000
O     5.095000000     0.021000000     3.987000000
C     5.853000000    -0.937000000     3.364000000
C     6.197000000    -0.852000000     1.990000000
H     5.962000000     0.003000000     1.362000000
C     6.360000000    -2.018000000     4.052000000
H     6.259000000    -2.085000000     5.132000000
C     7.204000000    -2.984000000     3.394000000
H     7.705000000    -3.709000000     4.030000000
C     7.493000000    -2.827000000     2.062000000
H     8.265000000    -3.428000000     1.587000000
C     6.908000000    -1.822000000     1.310000000
O     7.229000000    -1.616000000    -0.009000000
C     6.330000000    -1.600000000    -1.036000000
C     6.560000000    -0.780000000    -2.115000000
H     7.320000000    -0.004000000    -2.154000000
C     5.661000000    -0.720000000    -3.196000000
O     5.969000000     0.127000000    -4.257000000
C     5.000000000     0.689000000    -4.962000000
C     4.199000000     1.680000000    -4.410000000
H     4.407000000     2.095000000    -3.427000000
C     4.805000000     0.249000000    -6.262000000
H     5.331000000    -0.638000000    -6.606000000
C     3.795000000     0.781000000    -6.985000000
H     3.514000000     0.444000000    -7.980000000
C     2.896000000     1.758000000    -6.426000000
H     2.036000000     2.201000000    -6.922000000
C     3.107000000     2.131000000    -5.118000000
O     2.351000000     3.117000000    -4.535000000
C     0.909000000     3.083000000    -4.430000000
C     0.251000000     4.251000000    -3.978000000
H     0.794000000     5.189000000    -3.896000000
C    -1.149000000     4.233000000    -3.726000000
O    -1.748000000     5.379000000    -3.302000000
C    -3.009000000     5.422000000    -2.695000000
C    -4.135000000     5.597000000    -3.484000000
H    -4.112000000     5.679000000    -4.567000000
C    -5.365000000     5.836000000    -2.864000000
H    -6.255000000     5.915000000    -3.483000000
C    -5.449000000     6.031000000    -1.478000000
H    -6.334000000     6.215000000    -0.874000000
C    -4.286000000     5.900000000    -0.722000000
C    -3.094000000     5.672000000    -1.377000000
H    -2.233000000     5.718000000    -0.716000000
C     1.977000000     1.846000000    -0.436000000
H     3.036000000     2.051000000    -0.304000000
C     1.419000000     0.538000000    -0.428000000
H     2.041000000    -0.337000000    -0.258000000
C     0.082000000     0.317000000    -0.497000000
C    -0.487000000    -1.074000000    -0.478000000
H    -0.244000000    -1.558000000    -1.426000000
H    -0.202000000    -1.638000000     0.412000000
H    -1.578000000    -1.056000000    -0.437000000
C    -0.756000000     1.430000000    -0.616000000
H    -1.801000000     1.207000000    -0.815000000
C    -0.259000000     2.728000000    -0.700000000
H    -0.917000000     3.594000000    -0.700000000
C     1.103000000     2.971000000    -0.592000000
C     1.672000000     4.374000000    -0.681000000
O     1.001000000     5.342000000    -0.480000000
O     2.841000000     4.473000000    -0.900000000
O     0.998000000     2.321000000     2.471000000
H     0.968000000     2.040000000     1.556000000
H     1.081000000     1.508000000     2.968000000
O     2.279000000     7.802000000     1.995000000
H     1.381000000     7.473000000     1.942000000
H     2.794000000     7.046000000     2.276000000
O     6.783000000     3.051000000     2.245000000
H     7.149000000     2.396000000     1.651000000
H     6.182000000     3.560000000     1.701000000
O     2.803000000     4.655000000     3.428000000
H     3.667000000     4.812000000     3.047000000
H     2.261000000     4.381000000     2.688000000
O     3.078000000     7.048000000    -1.739000000
H     2.882000000     6.178000000    -1.390000000
H     2.275000000     7.549000000    -1.598000000
O     6.742000000     3.099000000    -3.926000000
H     6.396000000     2.981000000    -3.042000000
H     6.996000000     2.219000000    -4.204000000
O     7.069000000     5.347000000    -1.015000000
H     6.554000000     5.532000000    -1.800000000
H     6.435000000     4.998000000    -0.389000000
O     5.080000000     4.323000000     0.558000000
H     4.276000000     4.335000000     0.038000000
H     4.962000000     5.026000000     1.196000000
O     5.757000000     2.164000000    -1.246000000
H     6.562000000     2.065000000    -0.737000000
H     5.206000000     2.737000000    -0.713000000
O    -0.069000000     6.696000000     1.620000000
H     0.319000000     6.230000000     0.879000000
H    -0.702000000     6.079000000     1.986000000
O     5.031000000     6.353000000     2.269000000
H     5.431000000     6.802000000     3.014000000
H     5.021000000     7.009000000     1.572000000
O    -0.321000000     8.005000000    -3.968000000
H     0.085000000     7.974000000    -3.102000000
H    -1.197000000     8.357000000    -3.809000000
O     0.439000000     7.653000000    -1.439000000
H     0.577000000     6.733000000    -1.212000000
H    -0.489000000     7.807000000    -1.263000000
O     4.820000000     8.098000000     0.160000000
H     4.709000000     9.047000000     0.096000000
H     4.291000000     7.746000000    -0.555000000
O     4.675000000     5.412000000    -3.072000000
H     4.200000000     6.062000000    -2.554000000
H     4.025000000     4.735000000    -3.261000000
O     0.811000000    10.434000000    -1.225000000
H     0.266000000    10.216000000    -0.469000000
H     0.776000000     9.654000000    -1.778000000
O    -0.860000000     9.474000000     0.788000000
H    -1.713000000     9.099000000     0.570000000
H    -0.326000000     8.722000000     1.045000000
O     4.194000000     9.530000000    -3.610000000
H     5.068000000     9.814000000    -3.342000000
H     4.001000000     8.784000000    -3.042000000
O     6.140000000     7.366000000    -4.424000000
H     5.634000000     6.623000000    -4.095000000
H     6.046000000     7.318000000    -5.375000000
