218
-1448.59536
C     2.654000000    -0.391000000     4.921000000
H     3.239000000    -1.246000000     4.593000000
C     1.307000000    -0.261000000     4.593000000
C     0.670000000     0.932000000     4.919000000
H    -0.382000000     1.038000000     4.664000000
C     0.520000000    -1.366000000     3.961000000
O     1.237000000    -2.578000000     4.083000000
H     0.327000000    -1.074000000     2.918000000
O    -0.828000000    -1.489000000     4.632000000
C    -1.913000000    -1.781000000     3.856000000
C    -2.767000000    -0.757000000     3.359000000
H    -2.882000000     0.212000000     3.838000000
C    -3.803000000    -1.125000000     2.523000000
O    -4.521000000     0.000000000     2.127000000
C    -3.822000000    -2.359000000     1.839000000
C    -4.843000000    -2.624000000     0.730000000
H    -4.970000000    -3.708000000     0.746000000
C    -4.359000000    -2.171000000    -0.635000000
C    -3.718000000    -3.060000000    -1.597000000
H    -3.517000000    -4.096000000    -1.338000000
H    -5.879000000    -2.327000000     0.900000000
C    -2.818000000    -3.260000000     2.202000000
H    -2.868000000    -4.167000000     1.605000000
C    -1.913000000    -3.075000000     3.251000000
C    -0.972000000    -4.204000000     3.493000000
H    -1.501000000    -5.152000000     3.380000000
H    -0.717000000    -4.241000000     4.554000000
C     0.278000000    -4.128000000     2.548000000
C     0.315000000    -4.736000000     1.322000000
H    -0.481000000    -5.375000000     0.945000000
C     1.302000000    -3.199000000     2.879000000
C     2.344000000    -2.987000000     2.065000000
H     3.004000000    -2.157000000     2.302000000
C     2.527000000    -3.748000000     0.915000000
O     3.540000000    -3.398000000     0.092000000
C     3.348000000    -2.405000000    -0.919000000
C     4.559000000    -1.448000000    -1.013000000
C     4.784000000    -0.728000000    -2.176000000
H     4.128000000    -0.901000000    -3.025000000
C     5.105000000    -1.033000000     0.212000000
H     4.831000000    -1.681000000     1.041000000
O     3.188000000    -3.018000000    -2.241000000
H     2.478000000    -1.774000000    -0.684000000
C     1.431000000    -4.559000000     0.489000000
C     1.521000000    -5.170000000    -0.894000000
H     0.846000000    -6.027000000    -0.841000000
H     2.505000000    -5.509000000    -1.222000000
C     1.018000000    -4.311000000    -2.077000000
C    -0.339000000    -4.310000000    -2.512000000
H    -1.047000000    -5.006000000    -2.071000000
C     1.901000000    -3.272000000    -2.614000000
C     1.335000000    -2.396000000    -3.578000000
H     2.058000000    -1.789000000    -4.118000000
C    -0.024000000    -2.382000000    -3.979000000
O    -0.461000000    -1.332000000    -4.738000000
C    -1.329000000    -0.381000000    -4.013000000
C    -0.951000000     0.996000000    -4.534000000
C     0.370000000     1.339000000    -4.590000000
H     1.189000000     0.627000000    -4.533000000
C    -1.929000000     2.025000000    -4.578000000
H    -2.981000000     1.832000000    -4.388000000
O    -2.707000000    -0.711000000    -4.161000000
H    -1.127000000    -0.508000000    -2.939000000
C    -0.871000000    -3.362000000    -3.426000000
C    -2.395000000    -3.438000000    -3.674000000
H    -2.711000000    -4.474000000    -3.539000000
H    -2.653000000    -3.271000000    -4.722000000
C    -3.184000000    -2.496000000    -2.724000000
C    -3.320000000    -1.168000000    -3.023000000
C    -3.990000000    -0.329000000    -2.219000000
H    -4.037000000     0.735000000    -2.435000000
C    -4.512000000    -0.780000000    -1.036000000
O    -4.990000000     0.154000000    -0.182000000
C    -4.015000000     0.652000000     0.813000000
H    -3.033000000     0.230000000     0.549000000
C    -3.974000000     2.171000000     0.845000000
C    -3.370000000     2.798000000     1.924000000
H    -2.890000000     2.183000000     2.681000000
C    -4.568000000     2.952000000    -0.158000000
H    -5.042000000     2.504000000    -1.027000000
C    -4.454000000     4.321000000    -0.108000000
O    -5.167000000     5.110000000    -1.027000000
C    -3.922000000     4.950000000     1.015000000
H    -3.894000000     6.036000000     0.974000000
C    -3.399000000     4.191000000     2.038000000
O    -3.004000000     4.865000000     3.247000000
C    -2.607000000     4.156000000     4.380000000
C    -1.273000000     3.968000000     4.629000000
H    -0.590000000     4.447000000     3.933000000
C    -3.451000000     3.441000000     5.213000000
H    -4.525000000     3.403000000     5.047000000
C    -2.913000000     2.663000000     6.262000000
H    -3.732000000     2.178000000     6.787000000
C    -1.571000000     2.516000000     6.497000000
H    -1.157000000     1.800000000     7.202000000
C    -0.714000000     3.281000000     5.716000000
O     0.646000000     3.153000000     5.835000000
C     1.356000000     1.994000000     5.488000000
C     2.673000000     1.885000000     5.798000000
H     3.244000000     2.755000000     6.112000000
C     3.327000000     0.750000000     5.448000000
O     4.683000000     0.667000000     5.638000000
C     5.489000000     0.097000000     4.731000000
C     5.686000000     0.537000000     3.395000000
H     5.199000000     1.448000000     3.056000000
C     6.070000000    -1.099000000     5.059000000
H     5.854000000    -1.626000000     5.986000000
C     6.950000000    -1.780000000     4.230000000
H     7.345000000    -2.750000000     4.523000000
C     7.254000000    -1.245000000     3.016000000
H     7.989000000    -1.731000000     2.378000000
C     6.579000000    -0.095000000     2.568000000
O     6.803000000     0.370000000     1.300000000
C     6.109000000    -0.074000000     0.188000000
C     6.366000000     0.593000000    -1.004000000
H     7.149000000     1.342000000    -1.098000000
C     5.701000000     0.310000000    -2.209000000
O     5.968000000     1.017000000    -3.354000000
C     5.130000000     1.115000000    -4.477000000
C     4.101000000     1.946000000    -4.208000000
H     3.983000000     2.454000000    -3.254000000
C     5.303000000     0.386000000    -5.655000000
H     6.134000000    -0.282000000    -5.867000000
C     4.305000000     0.632000000    -6.557000000
H     4.233000000     0.014000000    -7.449000000
C     3.211000000     1.537000000    -6.339000000
H     2.401000000     1.633000000    -7.058000000
C     3.175000000     2.271000000    -5.167000000
O     2.105000000     3.003000000    -4.812000000
C     0.787000000     2.597000000    -4.835000000
C    -0.199000000     3.591000000    -4.964000000
H     0.129000000     4.607000000    -5.164000000
C    -1.555000000     3.321000000    -4.955000000
O    -2.418000000     4.345000000    -5.005000000
C    -3.595000000     4.317000000    -4.326000000
C    -4.761000000     3.800000000    -4.951000000
H    -4.666000000     3.435000000    -5.971000000
C    -6.025000000     3.813000000    -4.399000000
H    -6.874000000     3.471000000    -4.985000000
C    -6.140000000     4.147000000    -3.049000000
H    -7.132000000     4.077000000    -2.609000000
C    -5.046000000     4.672000000    -2.348000000
C    -3.763000000     4.828000000    -3.037000000
H    -2.880000000     5.249000000    -2.562000000
C    -0.138000000     2.397000000     0.755000000
H    -0.306000000     3.142000000     1.528000000
C    -0.616000000     1.100000000     1.017000000
H    -1.234000000     0.822000000     1.866000000
C    -0.197000000     0.113000000     0.090000000
C    -0.508000000    -1.382000000     0.191000000
H    -1.206000000    -1.736000000    -0.570000000
H     0.410000000    -1.945000000     0.012000000
H    -0.959000000    -1.522000000     1.175000000
C     0.624000000     0.463000000    -1.000000000
H     0.887000000    -0.301000000    -1.727000000
C     0.976000000     1.756000000    -1.219000000
H     1.763000000     1.979000000    -1.936000000
C     0.696000000     2.770000000    -0.303000000
C     1.373000000     4.109000000    -0.452000000
O     2.162000000     4.296000000    -1.281000000
O     0.905000000     5.059000000     0.148000000
O     4.901000000     7.281000000     3.772000000
H     4.394000000     6.547000000     4.119000000
H     4.941000000     7.907000000     4.495000000
O     3.077000000     9.265000000     1.908000000
H     3.670000000     8.850000000     2.535000000
H     2.676000000     8.534000000     1.438000000
O    -1.059000000     8.918000000    -2.140000000
H    -1.305000000     8.399000000    -2.906000000
H    -0.109000000     9.009000000    -2.207000000
O     7.357000000     3.652000000    -0.664000000
H     8.027000000     4.331000000    -0.741000000
H     6.528000000     4.124000000    -0.730000000
O     4.735000000     4.766000000    -0.688000000
H     4.456000000     4.517000000     0.193000000
H     3.944000000     4.687000000    -1.221000000
O     2.126000000     5.917000000    -3.462000000
H     2.055000000     5.343000000    -2.700000000
H     2.362000000     5.332000000    -4.182000000
O    -0.911000000     5.728000000    -1.515000000
H    -0.539000000     5.546000000    -2.378000000
H    -0.264000000     5.386000000    -0.898000000
O    -1.985000000     7.980000000    -4.624000000
H    -2.932000000     7.869000000    -4.549000000
H    -1.877000000     8.790000000    -5.123000000
O     2.928000000     5.312000000     5.298000000
H     2.255000000     4.739000000     5.663000000
H     2.570000000     5.596000000     4.457000000
O     4.519000000     4.895000000     2.158000000
H     5.334000000     4.569000000     2.541000000
H     4.673000000     5.831000000     2.028000000
O     1.708000000     8.622000000    -2.542000000
H     1.827000000     7.929000000    -3.191000000
H     1.646000000     8.159000000    -1.706000000
O     1.059000000     8.420000000     4.044000000
H     1.477000000     7.774000000     3.475000000
H     0.480000000     8.913000000     3.462000000
O    -2.130000000     7.896000000     0.068000000
H    -1.828000000     7.011000000    -0.135000000
H    -1.862000000     8.420000000    -0.687000000
O     5.299000000     7.568000000    -0.679000000
H     5.483000000     7.122000000    -1.505000000
H     4.641000000     7.019000000    -0.251000000
O     4.624000000    10.407000000    -1.200000000
H     4.617000000     9.456000000    -1.088000000
H     4.779000000    10.537000000    -2.135000000
O    -1.301000000     9.504000000     2.258000000
H    -0.653000000     9.999000000     1.757000000
H    -1.877000000     9.124000000     1.594000000
O     1.852000000    11.011000000    -1.225000000
H     1.931000000    10.304000000    -1.865000000
H     2.742000000    11.351000000    -1.133000000
O     1.985000000     6.192000000     2.523000000
H     2.599000000     5.534000000     2.196000000
H     1.181000000     6.036000000     2.028000000
O     1.288000000     7.738000000    -0.090000000
H     1.288000000     6.809000000     0.143000000
H     0.374000000     8.007000000     0.003000000
