218
-1466.83885
C    -5.263000000     0.544000000    -1.240000000
H    -5.072000000     0.866000000    -2.260000000
C    -4.788000000     1.298000000    -0.172000000
C    -5.231000000     1.053000000     1.130000000
H    -4.893000000     1.662000000     1.964000000
C    -3.717000000     2.309000000    -0.354000000
O    -3.660000000     3.006000000    -1.672000000
H    -2.741000000     1.811000000    -0.256000000
O    -3.703000000     3.349000000     0.645000000
C    -2.501000000     3.624000000     1.276000000
C    -2.174000000     3.031000000     2.496000000
H    -2.830000000     2.302000000     2.965000000
C    -0.975000000     3.343000000     3.180000000
O    -0.624000000     2.482000000     4.211000000
C    -0.053000000     4.146000000     2.501000000
C     1.303000000     4.482000000     3.095000000
H     1.635000000     5.493000000     2.849000000
C     2.319000000     3.482000000     2.594000000
C     2.999000000     3.699000000     1.359000000
H     2.897000000     4.652000000     0.847000000
H     1.316000000     4.346000000     4.178000000
C    -0.320000000     4.702000000     1.222000000
H     0.492000000     5.259000000     0.761000000
C    -1.528000000     4.420000000     0.621000000
C    -1.853000000     5.089000000    -0.704000000
H    -1.296000000     6.028000000    -0.736000000
H    -2.894000000     5.372000000    -0.872000000
C    -1.598000000     4.165000000    -1.857000000
C    -0.406000000     4.307000000    -2.565000000
H     0.367000000     4.963000000    -2.172000000
C    -2.474000000     3.194000000    -2.245000000
C    -2.147000000     2.303000000    -3.256000000
H    -2.827000000     1.477000000    -3.451000000
C    -0.962000000     2.418000000    -3.929000000
O    -0.652000000     1.428000000    -4.750000000
C     0.186000000     0.442000000    -4.188000000
C    -0.182000000    -0.890000000    -4.733000000
C     0.687000000    -1.721000000    -5.401000000
H     1.745000000    -1.505000000    -5.527000000
C    -1.488000000    -1.323000000    -4.311000000
H    -2.263000000    -0.712000000    -3.854000000
O     1.547000000     0.776000000    -4.506000000
H     0.132000000     0.416000000    -3.090000000
C    -0.065000000     3.413000000    -3.547000000
C     1.303000000     3.613000000    -4.067000000
H     1.664000000     4.643000000    -4.061000000
H     1.258000000     3.362000000    -5.129000000
C     2.295000000     2.687000000    -3.389000000
C     3.075000000     3.206000000    -2.395000000
H     3.120000000     4.268000000    -2.168000000
C     2.452000000     1.332000000    -3.638000000
C     3.330000000     0.472000000    -2.934000000
H     3.383000000    -0.597000000    -3.123000000
C     4.125000000     1.059000000    -1.986000000
O     4.794000000     0.183000000    -1.241000000
C     4.202000000    -0.307000000    -0.039000000
C     4.401000000    -1.823000000     0.149000000
C     4.156000000    -2.655000000    -0.935000000
H     3.907000000    -2.316000000    -1.937000000
C     4.581000000    -2.400000000     1.445000000
H     4.693000000    -1.728000000     2.291000000
O     4.665000000     0.452000000     1.109000000
H     3.112000000    -0.169000000    -0.097000000
C     3.940000000     2.397000000    -1.699000000
C     4.635000000     3.018000000    -0.456000000
H     4.736000000     4.074000000    -0.717000000
H     5.642000000     2.667000000    -0.225000000
C     3.850000000     2.749000000     0.853000000
C     3.863000000     1.490000000     1.530000000
C     3.288000000     1.297000000     2.731000000
H     3.452000000     0.349000000     3.237000000
C     2.413000000     2.263000000     3.229000000
O     1.596000000     1.958000000     4.276000000
C     0.272000000     1.417000000     3.885000000
H     0.210000000     1.129000000     2.825000000
C    -0.039000000     0.186000000     4.731000000
C    -1.409000000    -0.098000000     4.835000000
H    -2.094000000     0.569000000     4.318000000
C     0.934000000    -0.773000000     5.114000000
H     2.003000000    -0.576000000     5.117000000
C     0.495000000    -1.967000000     5.749000000
O     1.494000000    -2.825000000     6.246000000
C    -0.870000000    -2.202000000     5.996000000
H    -1.241000000    -3.049000000     6.567000000
C    -1.789000000    -1.289000000     5.445000000
O    -3.084000000    -1.566000000     5.702000000
C    -4.101000000    -0.655000000     5.384000000
C    -4.886000000    -0.965000000     4.260000000
H    -4.705000000    -1.843000000     3.645000000
C    -4.240000000     0.577000000     5.997000000
H    -3.652000000     0.824000000     6.876000000
C    -5.256000000     1.454000000     5.573000000
H    -5.568000000     2.329000000     6.137000000
C    -6.075000000     1.136000000     4.511000000
H    -6.920000000     1.764000000     4.242000000
C    -5.826000000    -0.058000000     3.772000000
O    -6.554000000    -0.331000000     2.589000000
C    -6.109000000     0.005000000     1.392000000
C    -6.477000000    -0.809000000     0.314000000
H    -7.167000000    -1.621000000     0.528000000
C    -6.162000000    -0.477000000    -1.018000000
O    -6.651000000    -1.206000000    -2.057000000
C    -6.036000000    -1.512000000    -3.271000000
C    -4.755000000    -2.050000000    -3.271000000
H    -4.340000000    -2.223000000    -2.281000000
C    -6.717000000    -1.252000000    -4.443000000
H    -7.696000000    -0.781000000    -4.406000000
C    -6.154000000    -1.729000000    -5.654000000
H    -6.755000000    -1.650000000    -6.556000000
C    -4.911000000    -2.375000000    -5.672000000
H    -4.509000000    -2.753000000    -6.609000000
C    -4.210000000    -2.546000000    -4.451000000
O    -3.047000000    -3.206000000    -4.371000000
C    -1.772000000    -2.683000000    -4.639000000
C    -0.817000000    -3.511000000    -5.084000000
H    -0.993000000    -4.566000000    -5.278000000
C     0.473000000    -3.081000000    -5.384000000
O     1.352000000    -3.958000000    -5.894000000
C     2.546000000    -4.201000000    -5.237000000
C     2.577000000    -4.483000000    -3.881000000
H     1.651000000    -4.607000000    -3.324000000
C     3.771000000    -4.068000000    -5.929000000
H     3.674000000    -3.821000000    -6.983000000
C     5.002000000    -4.126000000    -5.175000000
H     5.923000000    -3.933000000    -5.719000000
C     4.981000000    -4.402000000    -3.815000000
H     5.904000000    -4.593000000    -3.273000000
C     3.757000000    -4.540000000    -3.110000000
O     3.751000000    -4.900000000    -1.776000000
C     4.157000000    -4.020000000    -0.728000000
C     4.318000000    -4.603000000     0.545000000
H     4.051000000    -5.649000000     0.667000000
C     4.515000000    -3.748000000     1.657000000
O     4.586000000    -4.263000000     2.954000000
C     4.335000000    -3.550000000     4.079000000
C     5.440000000    -3.238000000     4.896000000
H     6.477000000    -3.305000000     4.575000000
C     5.183000000    -2.721000000     6.157000000
H     5.983000000    -2.422000000     6.829000000
C     3.853000000    -2.642000000     6.657000000
H     3.510000000    -2.102000000     7.535000000
C     2.787000000    -2.937000000     5.820000000
C     3.006000000    -3.415000000     4.514000000
H     2.219000000    -3.530000000     3.773000000
C    -2.184000000    -1.248000000     0.586000000
H    -3.074000000    -1.223000000     1.209000000
C    -1.389000000    -0.106000000     0.706000000
H    -1.560000000     0.761000000     1.338000000
C    -0.233000000    -0.018000000    -0.091000000
C     0.520000000     1.275000000    -0.213000000
H     0.459000000     1.476000000    -1.285000000
H     0.035000000     2.099000000     0.315000000
H     1.517000000     1.055000000     0.174000000
C     0.165000000    -1.140000000    -0.895000000
H     1.018000000    -1.089000000    -1.567000000
C    -0.602000000    -2.273000000    -0.929000000
H    -0.258000000    -3.028000000    -1.631000000
C    -1.819000000    -2.347000000    -0.205000000
C    -2.630000000    -3.616000000    -0.241000000
O    -2.207000000    -4.559000000    -0.835000000
O    -3.765000000    -3.569000000     0.235000000
O    -6.104000000    -5.860000000    -3.832000000
H    -6.387000000    -5.458000000    -4.654000000
H    -6.858000000    -5.770000000    -3.250000000
O    -3.934000000    -8.411000000     3.816000000
H    -3.855000000    -8.630000000     4.745000000
H    -3.563000000    -7.531000000     3.745000000
O    -5.977000000    -4.449000000    -0.957000000
H    -5.436000000    -5.232000000    -1.056000000
H    -5.434000000    -3.844000000    -0.451000000
O    -2.321000000    -6.153000000     4.614000000
H    -2.745000000    -5.575000000     3.980000000
H    -1.459000000    -6.332000000     4.236000000
O    -3.461000000    -5.960000000    -4.416000000
H    -4.374000000    -5.739000000    -4.231000000
H    -3.039000000    -5.116000000    -4.578000000
O    -7.724000000    -6.037000000     0.633000000
H    -8.662000000    -6.049000000     0.443000000
H    -7.398000000    -5.257000000     0.184000000
O    -1.195000000    -6.728000000    -2.573000000
H    -1.395000000    -5.932000000    -2.081000000
H    -1.865000000    -6.763000000    -3.256000000
O    -4.033000000    -6.605000000    -0.760000000
H    -3.969000000    -6.962000000     0.126000000
H    -3.647000000    -5.732000000    -0.694000000
O     0.792000000    -4.700000000     0.249000000
H     0.536000000    -3.830000000     0.555000000
H     0.096000000    -5.278000000     0.564000000
O    -8.592000000    -2.428000000     3.034000000
H    -8.682000000    -1.912000000     3.835000000
H    -7.662000000    -2.371000000     2.816000000
O     1.664000000    -6.534000000     1.918000000
H     1.098000000    -6.574000000     2.689000000
H     1.524000000    -5.657000000     1.562000000
O     1.432000000    -7.103000000    -1.376000000
H     0.487000000    -7.183000000    -1.507000000
H     1.545000000    -6.248000000    -0.962000000
O    -3.939000000    -4.624000000     2.738000000
H    -3.995000000    -4.385000000     1.813000000
H    -4.824000000    -4.485000000     3.075000000
O    -6.954000000    -8.061000000    -0.877000000
H    -6.004000000    -8.079000000    -0.767000000
H    -7.247000000    -7.338000000    -0.322000000
O    -6.091000000    -4.539000000     4.406000000
H    -5.420000000    -4.389000000     5.072000000
H    -6.902000000    -4.232000000     4.811000000
O    -3.581000000    -8.549000000     0.951000000
H    -2.974000000    -9.282000000     0.846000000
H    -4.046000000    -8.738000000     1.766000000
O    -3.665000000    -8.856000000    -2.123000000
H    -2.735000000    -8.781000000    -2.337000000
H    -3.871000000    -8.044000000    -1.660000000
O    -1.285000000    -6.263000000     1.045000000
H    -1.884000000    -6.920000000     1.398000000
H    -1.798000000    -5.802000000     0.381000000
O     0.414000000    -2.100000000     2.466000000
H     0.725000000    -1.693000000     3.275000000
H    -0.426000000    -1.677000000     2.293000000
