218
-1473.45492
C     1.297000000     0.093000000     4.730000000
H     2.012000000    -0.470000000     4.135000000
C    -0.013000000    -0.442000000     4.759000000
C    -1.016000000     0.172000000     5.533000000
H    -2.051000000    -0.131000000     5.403000000
C    -0.351000000    -1.581000000     3.870000000
O     0.729000000    -2.560000000     3.959000000
H    -0.519000000    -1.093000000     2.899000000
O    -1.636000000    -2.202000000     4.183000000
C    -2.442000000    -2.524000000     3.060000000
C    -3.375000000    -1.599000000     2.693000000
H    -3.428000000    -0.614000000     3.151000000
C    -4.107000000    -1.746000000     1.550000000
O    -5.017000000    -0.703000000     1.177000000
C    -3.944000000    -2.918000000     0.806000000
C    -4.619000000    -3.138000000    -0.536000000
H    -4.517000000    -4.219000000    -0.654000000
C    -3.860000000    -2.412000000    -1.667000000
C    -2.957000000    -3.088000000    -2.497000000
H    -2.767000000    -4.152000000    -2.385000000
H    -5.661000000    -2.816000000    -0.483000000
C    -2.990000000    -3.879000000     1.152000000
H    -3.150000000    -4.882000000     0.764000000
C    -2.222000000    -3.652000000     2.309000000
C    -1.194000000    -4.644000000     2.738000000
H    -1.516000000    -5.618000000     2.364000000
H    -1.059000000    -4.728000000     3.818000000
C     0.186000000    -4.240000000     2.195000000
C     0.700000000    -4.967000000     1.098000000
H     0.131000000    -5.722000000     0.562000000
C     1.049000000    -3.289000000     2.813000000
C     2.300000000    -2.990000000     2.215000000
H     2.997000000    -2.280000000     2.650000000
C     2.656000000    -3.591000000     1.021000000
O     3.901000000    -3.173000000     0.493000000
C     3.791000000    -2.220000000    -0.608000000
C     4.775000000    -1.049000000    -0.472000000
C     5.630000000    -0.804000000    -1.520000000
H     5.544000000    -1.272000000    -2.497000000
C     4.827000000    -0.343000000     0.659000000
H     4.171000000    -0.702000000     1.448000000
O     3.816000000    -2.848000000    -1.899000000
H     2.798000000    -1.765000000    -0.482000000
C     1.825000000    -4.531000000     0.401000000
C     2.108000000    -5.076000000    -1.005000000
H     1.465000000    -5.936000000    -1.200000000
H     3.157000000    -5.341000000    -1.156000000
C     1.756000000    -4.140000000    -2.155000000
C     0.472000000    -4.191000000    -2.779000000
H    -0.198000000    -5.024000000    -2.584000000
C     2.657000000    -3.099000000    -2.502000000
C     2.315000000    -2.153000000    -3.477000000
H     3.055000000    -1.403000000    -3.746000000
C     1.041000000    -2.121000000    -4.007000000
O     0.525000000    -1.076000000    -4.782000000
C    -0.211000000    -0.083000000    -4.131000000
C     0.296000000     1.321000000    -4.360000000
C     1.643000000     1.559000000    -4.554000000
H     2.315000000     0.749000000    -4.828000000
C    -0.588000000     2.375000000    -4.202000000
H    -1.600000000     2.126000000    -3.893000000
O    -1.565000000    -0.286000000    -4.523000000
H    -0.124000000    -0.183000000    -3.039000000
C     0.154000000    -3.154000000    -3.748000000
C    -1.255000000    -3.217000000    -4.302000000
H    -1.513000000    -4.275000000    -4.370000000
H    -1.352000000    -2.857000000    -5.328000000
C    -2.238000000    -2.368000000    -3.486000000
C    -2.366000000    -0.959000000    -3.704000000
C    -3.411000000    -0.370000000    -2.960000000
H    -3.649000000     0.679000000    -3.115000000
C    -4.058000000    -1.088000000    -1.885000000
O    -4.965000000    -0.321000000    -1.091000000
C    -4.470000000     0.210000000     0.170000000
H    -3.371000000     0.163000000     0.158000000
C    -4.738000000     1.673000000     0.473000000
C    -4.382000000     2.175000000     1.730000000
H    -4.082000000     1.466000000     2.497000000
C    -4.956000000     2.558000000    -0.570000000
H    -5.343000000     2.202000000    -1.520000000
C    -4.793000000     3.961000000    -0.319000000
O    -5.031000000     4.792000000    -1.367000000
C    -4.512000000     4.425000000     0.936000000
H    -4.563000000     5.501000000     1.083000000
C    -4.344000000     3.556000000     1.990000000
O    -3.837000000     3.984000000     3.254000000
C    -3.935000000     3.210000000     4.442000000
C    -2.795000000     2.859000000     5.161000000
H    -1.809000000     3.032000000     4.737000000
C    -5.219000000     2.838000000     4.893000000
H    -6.049000000     3.150000000     4.264000000
C    -5.304000000     2.225000000     6.175000000
H    -6.270000000     1.909000000     6.561000000
C    -4.122000000     1.900000000     6.907000000
H    -4.266000000     1.405000000     7.864000000
C    -2.878000000     2.183000000     6.368000000
O    -1.695000000     1.898000000     7.007000000
C    -0.711000000     1.219000000     6.359000000
C     0.585000000     1.682000000     6.381000000
H     0.704000000     2.551000000     7.024000000
C     1.605000000     1.181000000     5.552000000
O     2.858000000     1.573000000     5.886000000
C     3.912000000     1.001000000     5.190000000
C     4.371000000     1.565000000     4.000000000
H     3.802000000     2.284000000     3.416000000
C     4.584000000    -0.105000000     5.772000000
H     4.352000000    -0.518000000     6.751000000
C     5.649000000    -0.770000000     5.073000000
H     6.122000000    -1.661000000     5.478000000
C     5.942000000    -0.257000000     3.748000000
H     6.539000000    -0.899000000     3.106000000
C     5.419000000     0.926000000     3.313000000
O     5.835000000     1.364000000     2.054000000
C     5.827000000     0.618000000     0.910000000
C     6.559000000     1.035000000    -0.150000000
H     7.338000000     1.788000000    -0.066000000
C     6.436000000     0.368000000    -1.385000000
O     6.998000000     0.871000000    -2.559000000
C     6.293000000     1.264000000    -3.619000000
C     5.138000000     2.131000000    -3.546000000
H     4.776000000     2.583000000    -2.627000000
C     6.796000000     0.842000000    -4.832000000
H     7.697000000     0.238000000    -4.890000000
C     6.011000000     1.009000000    -6.005000000
H     6.462000000     0.654000000    -6.928000000
C     4.885000000     1.804000000    -6.015000000
H     4.246000000     2.094000000    -6.845000000
C     4.438000000     2.340000000    -4.782000000
O     3.421000000     3.252000000    -4.784000000
C     2.069000000     2.920000000    -4.596000000
C     1.149000000     3.962000000    -4.512000000
H     1.533000000     4.975000000    -4.602000000
C    -0.192000000     3.696000000    -4.268000000
O    -1.111000000     4.684000000    -3.991000000
C    -2.475000000     4.563000000    -3.944000000
C    -3.287000000     4.258000000    -5.024000000
H    -2.780000000     4.125000000    -5.976000000
C    -4.660000000     4.062000000    -4.881000000
H    -5.254000000     3.691000000    -5.712000000
C    -5.251000000     4.354000000    -3.666000000
H    -6.333000000     4.296000000    -3.579000000
C    -4.445000000     4.639000000    -2.594000000
C    -3.099000000     4.736000000    -2.707000000
H    -2.564000000     4.983000000    -1.794000000
C     1.589000000     1.941000000    -1.075000000
H     2.581000000     1.989000000    -1.516000000
C     1.121000000     0.628000000    -0.968000000
H     1.678000000    -0.208000000    -1.384000000
C    -0.105000000     0.375000000    -0.397000000
C    -0.612000000    -1.021000000    -0.334000000
H    -1.364000000    -1.219000000    -1.101000000
H     0.230000000    -1.712000000    -0.416000000
H    -1.165000000    -1.239000000     0.582000000
C    -0.847000000     1.479000000    -0.019000000
H    -1.784000000     1.281000000     0.495000000
C    -0.450000000     2.803000000    -0.213000000
H    -1.111000000     3.611000000     0.090000000
C     0.823000000     3.064000000    -0.729000000
C     1.408000000     4.438000000    -0.876000000
O     0.781000000     5.390000000    -0.495000000
O     2.564000000     4.522000000    -1.221000000
O     0.185000000     8.060000000    -1.335000000
H     0.224000000     7.108000000    -1.243000000
H     0.503000000     8.229000000    -2.222000000
O     6.232000000     4.641000000    -2.121000000
H     7.148000000     4.607000000    -1.844000000
H     5.765000000     4.122000000    -1.466000000
O     1.248000000     2.214000000     2.242000000
H     1.527000000     1.300000000     2.302000000
H     0.896000000     2.299000000     1.356000000
O     3.372000000     7.224000000    -0.985000000
H     2.809000000     6.451000000    -0.942000000
H     3.937000000     7.067000000    -1.742000000
O    -2.389000000     7.795000000    -1.190000000
H    -2.684000000     7.827000000    -2.100000000
H    -1.459000000     8.017000000    -1.231000000
O     4.541000000     5.710000000     2.340000000
H     4.119000000     6.513000000     2.035000000
H     4.187000000     5.573000000     3.218000000
O     6.188000000     6.983000000     0.213000000
H     6.646000000     6.355000000    -0.344000000
H     5.516000000     6.465000000     0.656000000
O     0.861000000     4.697000000     3.207000000
H     0.951000000     3.762000000     3.026000000
H     0.423000000     5.050000000     2.432000000
O     1.963000000     7.255000000     2.235000000
H     2.035000000     6.589000000     1.551000000
H     1.407000000     7.933000000     1.852000000
O     0.655000000     9.024000000    -3.779000000
H     1.160000000     8.488000000    -4.390000000
H     0.033000000     9.496000000    -4.333000000
O    -0.347000000     5.844000000     5.431000000
H    -0.767000000     6.659000000     5.156000000
H     0.015000000     5.477000000     4.624000000
O     0.137000000    10.894000000    -1.246000000
H     0.935000000    10.948000000    -1.773000000
H    -0.051000000     9.957000000    -1.191000000
O     2.679000000     7.505000000    -4.973000000
H     3.348000000     7.509000000    -5.658000000
H     3.087000000     7.039000000    -4.244000000
O     3.750000000     9.601000000     0.285000000
H     4.464000000    10.121000000    -0.086000000
H     3.806000000     8.760000000    -0.168000000
O    -1.334000000     6.576000000    -6.073000000
H    -1.300000000     6.188000000    -5.199000000
H    -1.341000000     7.520000000    -5.916000000
O    -1.380000000     6.380000000     1.025000000
H    -0.689000000     5.940000000     0.531000000
H    -1.973000000     6.721000000     0.356000000
O     3.799000000     5.768000000    -3.306000000
H     4.653000000     5.373000000    -3.484000000
H     3.432000000     5.237000000    -2.599000000
O     2.956000000     5.584000000     4.578000000
H     2.785000000     6.009000000     5.418000000
H     2.089000000     5.355000000     4.244000000
O     4.828000000     3.921000000     0.216000000
H     4.850000000     4.224000000     1.124000000
H     3.934000000     4.103000000    -0.076000000
