218
-1486.96062
C     1.426000000    -0.214000000     5.007000000
H     2.148000000    -0.968000000     4.706000000
C     0.092000000    -0.358000000     4.594000000
C    -0.843000000     0.556000000     4.970000000
H    -1.903000000     0.412000000     4.777000000
C    -0.350000000    -1.657000000     3.834000000
O     0.473000000    -2.795000000     4.088000000
H    -0.232000000    -1.461000000     2.758000000
O    -1.748000000    -2.008000000     4.089000000
C    -2.559000000    -2.353000000     2.946000000
C    -3.544000000    -1.401000000     2.602000000
H    -3.781000000    -0.510000000     3.178000000
C    -4.383000000    -1.585000000     1.533000000
O    -5.145000000    -0.601000000     1.093000000
C    -4.124000000    -2.694000000     0.683000000
C    -4.904000000    -2.880000000    -0.628000000
H    -4.961000000    -3.923000000    -0.947000000
C    -4.083000000    -2.181000000    -1.696000000
C    -3.136000000    -2.946000000    -2.376000000
H    -2.967000000    -3.994000000    -2.144000000
H    -5.945000000    -2.588000000    -0.477000000
C    -3.134000000    -3.666000000     1.071000000
H    -2.937000000    -4.516000000     0.422000000
C    -2.379000000    -3.532000000     2.192000000
C    -1.403000000    -4.642000000     2.743000000
H    -1.798000000    -5.555000000     2.294000000
H    -1.470000000    -4.907000000     3.800000000
C     0.006000000    -4.337000000     2.243000000
C     0.460000000    -4.872000000     1.061000000
H    -0.230000000    -5.452000000     0.453000000
C     0.847000000    -3.485000000     2.957000000
C     2.157000000    -3.233000000     2.528000000
H     2.868000000    -2.697000000     3.151000000
C     2.546000000    -3.783000000     1.264000000
O     3.775000000    -3.353000000     0.815000000
C     3.694000000    -2.403000000    -0.238000000
C     4.730000000    -1.337000000    -0.191000000
C     5.366000000    -0.851000000    -1.371000000
H     5.251000000    -1.287000000    -2.360000000
C     5.064000000    -0.742000000     1.042000000
H     4.581000000    -1.149000000     1.927000000
O     3.818000000    -3.045000000    -1.547000000
H     2.724000000    -1.891000000    -0.151000000
C     1.722000000    -4.601000000     0.550000000
C     2.145000000    -5.216000000    -0.785000000
H     1.757000000    -6.210000000    -1.014000000
H     3.213000000    -5.443000000    -0.746000000
C     1.796000000    -4.204000000    -1.871000000
C     0.524000000    -4.223000000    -2.483000000
H    -0.164000000    -5.057000000    -2.369000000
C     2.673000000    -3.216000000    -2.231000000
C     2.281000000    -2.142000000    -3.080000000
H     2.975000000    -1.334000000    -3.297000000
C     0.978000000    -2.126000000    -3.612000000
O     0.623000000    -1.106000000    -4.440000000
C    -0.297000000    -0.134000000    -3.875000000
C     0.228000000     1.253000000    -4.245000000
C     1.581000000     1.581000000    -4.078000000
H     2.163000000     0.666000000    -3.994000000
C    -0.648000000     2.319000000    -4.548000000
H    -1.696000000     2.058000000    -4.675000000
O    -1.594000000    -0.329000000    -4.454000000
H    -0.478000000    -0.181000000    -2.791000000
C     0.069000000    -3.181000000    -3.364000000
C    -1.316000000    -3.292000000    -4.063000000
H    -1.745000000    -4.292000000    -4.160000000
H    -1.225000000    -3.002000000    -5.112000000
C    -2.299000000    -2.360000000    -3.399000000
C    -2.427000000    -1.030000000    -3.661000000
C    -3.249000000    -0.214000000    -2.923000000
H    -3.234000000     0.869000000    -3.016000000
C    -4.081000000    -0.803000000    -1.935000000
O    -4.962000000    -0.132000000    -1.184000000
C    -4.503000000     0.257000000     0.143000000
H    -3.425000000     0.064000000     0.244000000
C    -4.778000000     1.759000000     0.340000000
C    -4.732000000     2.356000000     1.684000000
H    -4.718000000     1.680000000     2.535000000
C    -4.798000000     2.648000000    -0.783000000
H    -4.847000000     2.187000000    -1.766000000
C    -4.650000000     4.023000000    -0.571000000
O    -4.717000000     4.886000000    -1.636000000
C    -4.659000000     4.544000000     0.752000000
H    -4.532000000     5.620000000     0.836000000
C    -4.811000000     3.749000000     1.861000000
O    -5.057000000     4.221000000     3.091000000
C    -4.570000000     3.527000000     4.187000000
C    -3.180000000     3.590000000     4.453000000
H    -2.555000000     4.237000000     3.842000000
C    -5.341000000     2.808000000     5.021000000
H    -6.401000000     2.665000000     4.832000000
C    -4.811000000     2.090000000     6.096000000
H    -5.474000000     1.510000000     6.733000000
C    -3.439000000     2.060000000     6.304000000
H    -2.948000000     1.573000000     7.143000000
C    -2.619000000     2.812000000     5.475000000
O    -1.254000000     2.776000000     5.653000000
C    -0.387000000     1.735000000     5.517000000
C     0.947000000     1.857000000     6.004000000
H     1.226000000     2.790000000     6.487000000
C     1.844000000     0.890000000     5.751000000
O     3.123000000     1.074000000     6.176000000
C     4.308000000     0.722000000     5.459000000
C     4.550000000     1.194000000     4.172000000
H     3.884000000     1.944000000     3.753000000
C     5.160000000    -0.258000000     5.997000000
H     4.909000000    -0.650000000     6.979000000
C     6.272000000    -0.744000000     5.321000000
H     6.816000000    -1.601000000     5.711000000
C     6.549000000    -0.188000000     4.065000000
H     7.386000000    -0.609000000     3.514000000
C     5.735000000     0.791000000     3.506000000
O     6.151000000     1.200000000     2.263000000
C     5.853000000     0.462000000     1.053000000
C     6.477000000     0.904000000    -0.100000000
H     7.059000000     1.822000000    -0.059000000
C     6.281000000     0.145000000    -1.269000000
O     6.934000000     0.441000000    -2.481000000
C     6.257000000     0.972000000    -3.589000000
C     5.231000000     1.865000000    -3.389000000
H     5.011000000     2.192000000    -2.376000000
C     6.575000000     0.505000000    -4.814000000
H     7.319000000    -0.279000000    -4.930000000
C     5.844000000     0.921000000    -5.881000000
H     5.960000000     0.426000000    -6.842000000
C     4.718000000     1.744000000    -5.661000000
H     4.132000000     2.003000000    -6.539000000
C     4.399000000     2.251000000    -4.411000000
O     3.382000000     3.192000000    -4.158000000
C     2.048000000     2.864000000    -4.222000000
C     1.137000000     3.869000000    -4.523000000
H     1.493000000     4.880000000    -4.705000000
C    -0.212000000     3.623000000    -4.638000000
O    -1.136000000     4.689000000    -4.805000000
C    -2.472000000     4.529000000    -4.600000000
C    -3.383000000     4.362000000    -5.629000000
H    -2.900000000     4.444000000    -6.599000000
C    -4.729000000     4.283000000    -5.291000000
H    -5.425000000     4.298000000    -6.127000000
C    -5.171000000     4.321000000    -3.978000000
H    -6.226000000     4.233000000    -3.735000000
C    -4.283000000     4.511000000    -2.946000000
C    -2.914000000     4.660000000    -3.271000000
H    -2.274000000     5.051000000    -2.483000000
C     2.141000000     2.352000000    -0.267000000
H     3.168000000     2.506000000     0.055000000
C     1.659000000     1.097000000     0.008000000
H     2.323000000     0.374000000     0.475000000
C     0.392000000     0.783000000    -0.368000000
C    -0.172000000    -0.591000000    -0.119000000
H    -1.126000000    -0.694000000    -0.640000000
H     0.529000000    -1.334000000    -0.505000000
H    -0.444000000    -0.731000000     0.929000000
C    -0.367000000     1.722000000    -1.064000000
H    -1.387000000     1.521000000    -1.379000000
C     0.046000000     3.042000000    -1.178000000
H    -0.639000000     3.814000000    -1.518000000
C     1.321000000     3.361000000    -0.833000000
C     1.751000000     4.765000000    -1.066000000
O     1.007000000     5.712000000    -0.653000000
O     2.904000000     5.051000000    -1.425000000
O     6.505000000     7.650000000    -2.906000000
H     6.970000000     6.906000000    -2.522000000
H     5.608000000     7.337000000    -3.024000000
O     3.016000000     8.373000000     2.210000000
H     2.733000000     8.047000000     1.356000000
H     2.581000000     7.800000000     2.841000000
O     0.167000000     7.311000000    -2.809000000
H     0.559000000     6.884000000    -2.047000000
H     0.860000000     7.304000000    -3.470000000
O     7.624000000     3.990000000    -1.518000000
H     8.339000000     3.901000000    -0.888000000
H     6.867000000     4.242000000    -0.988000000
O    -0.213000000     3.154000000     2.045000000
H     0.357000000     2.602000000     1.511000000
H     0.380000000     3.595000000     2.653000000
O     2.894000000     7.684000000    -0.482000000
H     2.572000000     6.819000000    -0.737000000
H     3.769000000     7.736000000    -0.866000000
O    -1.680000000     9.056000000     0.640000000
H    -0.967000000     9.411000000     1.171000000
H    -1.357000000     9.107000000    -0.260000000
O     3.261000000     4.765000000     2.178000000
H     2.503000000     5.280000000     1.901000000
H     3.525000000     5.156000000     3.011000000
O     6.378000000     6.126000000     2.200000000
H     5.822000000     5.724000000     1.532000000
H     7.265000000     5.847000000     1.972000000
O    -1.744000000     6.611000000     2.797000000
H    -1.677000000     5.934000000     2.124000000
H    -2.513000000     7.123000000     2.547000000
O     0.258000000     5.256000000     4.505000000
H    -0.402000000     5.652000000     3.936000000
H    -0.192000000     4.518000000     4.917000000
O     0.840000000     6.636000000     1.853000000
H     0.957000000     6.385000000     0.936000000
H    -0.092000000     6.843000000     1.927000000
O     1.194000000    10.072000000    -4.354000000
H     1.731000000     9.283000000    -4.422000000
H     0.892000000    10.079000000    -3.446000000
O     2.478000000     7.671000000    -4.554000000
H     2.960000000     7.878000000    -5.355000000
H     3.129000000     7.264000000    -3.982000000
O     1.980000000     9.905000000    -1.816000000
H     2.728000000    10.483000000    -1.665000000
H     2.182000000     9.116000000    -1.313000000
O    -1.520000000     5.036000000     0.555000000
H    -0.644000000     5.324000000     0.298000000
H    -1.373000000     4.226000000     1.043000000
O     4.282000000     6.284000000    -3.139000000
H     4.356000000     5.885000000    -4.006000000
H     3.723000000     5.683000000    -2.646000000
O    -2.412000000     8.546000000    -3.067000000
H    -1.536000000     8.166000000    -3.002000000
H    -2.617000000     8.515000000    -4.002000000
O     5.356000000     4.262000000    -0.176000000
H     4.976000000     4.002000000     0.664000000
H     4.613000000     4.580000000    -0.688000000
