218
-1481.13018
C    -0.038000000    -0.405000000     5.051000000
H     0.909000000    -0.768000000     4.661000000
C    -1.274000000    -1.033000000     4.660000000
C    -2.538000000    -0.584000000     5.124000000
H    -3.465000000    -0.994000000     4.730000000
C    -1.253000000    -2.130000000     3.574000000
O    -0.172000000    -3.056000000     3.781000000
H    -1.077000000    -1.563000000     2.648000000
O    -2.548000000    -2.746000000     3.390000000
C    -2.902000000    -2.984000000     2.054000000
C    -3.669000000    -2.052000000     1.434000000
H    -4.038000000    -1.180000000     1.967000000
C    -4.018000000    -2.179000000     0.116000000
O    -4.773000000    -1.208000000    -0.408000000
C    -3.486000000    -3.206000000    -0.697000000
C    -3.920000000    -3.254000000    -2.210000000
H    -3.867000000    -4.319000000    -2.449000000
C    -3.005000000    -2.382000000    -3.013000000
C    -1.897000000    -2.993000000    -3.567000000
H    -1.782000000    -4.067000000    -3.442000000
H    -4.968000000    -2.958000000    -2.288000000
C    -2.625000000    -4.098000000    -0.085000000
H    -2.060000000    -4.791000000    -0.704000000
C    -2.349000000    -4.016000000     1.277000000
C    -1.355000000    -4.924000000     1.994000000
H    -1.484000000    -5.970000000     1.708000000
H    -1.531000000    -5.076000000     3.061000000
C     0.028000000    -4.327000000     1.782000000
C     0.803000000    -4.699000000     0.731000000
H     0.290000000    -5.433000000     0.114000000
C     0.587000000    -3.482000000     2.735000000
C     1.879000000    -2.981000000     2.631000000
H     2.324000000    -2.261000000     3.313000000
C     2.664000000    -3.317000000     1.550000000
O     3.885000000    -2.750000000     1.412000000
C     3.889000000    -1.743000000     0.317000000
C     4.701000000    -0.506000000     0.776000000
C     5.487000000     0.311000000    -0.096000000
H     5.498000000     0.047000000    -1.151000000
C     4.657000000    -0.191000000     2.183000000
H     4.166000000    -0.850000000     2.894000000
O     4.448000000    -2.322000000    -0.905000000
H     2.899000000    -1.321000000     0.090000000
C     2.095000000    -4.153000000     0.542000000
C     2.872000000    -4.650000000    -0.698000000
H     2.477000000    -5.596000000    -1.075000000
H     3.888000000    -4.805000000    -0.329000000
C     2.721000000    -3.660000000    -1.857000000
C     1.689000000    -3.786000000    -2.818000000
H     0.933000000    -4.562000000    -2.728000000
C     3.583000000    -2.595000000    -1.915000000
C     3.453000000    -1.614000000    -2.873000000
H     4.014000000    -0.683000000    -2.859000000
C     2.510000000    -1.756000000    -3.859000000
O     2.219000000    -0.621000000    -4.591000000
C     1.126000000     0.327000000    -4.113000000
C     1.413000000     1.796000000    -4.272000000
C     2.602000000     2.248000000    -3.791000000
H     3.412000000     1.593000000    -3.482000000
C     0.385000000     2.709000000    -4.710000000
H    -0.582000000     2.320000000    -5.018000000
O    -0.178000000    -0.015000000    -4.779000000
H     1.054000000     0.161000000    -3.028000000
C     1.595000000    -2.839000000    -3.810000000
C     0.411000000    -2.882000000    -4.691000000
H     0.152000000    -3.920000000    -4.911000000
H     0.653000000    -2.551000000    -5.703000000
C    -0.859000000    -2.198000000    -4.190000000
C    -1.110000000    -0.841000000    -4.322000000
C    -2.245000000    -0.230000000    -3.850000000
H    -2.354000000     0.847000000    -3.941000000
C    -3.189000000    -1.003000000    -3.132000000
O    -4.254000000    -0.367000000    -2.489000000
C    -4.050000000    -0.178000000    -1.071000000
H    -3.032000000    -0.255000000    -0.661000000
C    -4.498000000     1.194000000    -0.661000000
C    -4.953000000     1.433000000     0.637000000
H    -5.217000000     0.601000000     1.285000000
C    -4.222000000     2.274000000    -1.543000000
H    -3.678000000     2.105000000    -2.468000000
C    -4.487000000     3.583000000    -1.151000000
O    -4.132000000     4.712000000    -1.939000000
C    -5.029000000     3.828000000     0.140000000
H    -5.219000000     4.836000000     0.498000000
C    -5.179000000     2.777000000     1.034000000
O    -5.679000000     2.986000000     2.344000000
C    -5.624000000     2.046000000     3.371000000
C    -4.681000000     2.047000000     4.454000000
H    -3.837000000     2.729000000     4.395000000
C    -6.690000000     1.125000000     3.455000000
H    -7.459000000     1.109000000     2.687000000
C    -6.780000000     0.253000000     4.526000000
H    -7.583000000    -0.477000000     4.591000000
C    -5.943000000     0.403000000     5.652000000
H    -6.040000000    -0.272000000     6.499000000
C    -4.823000000     1.153000000     5.531000000
O    -3.771000000     1.024000000     6.405000000
C    -2.560000000     0.499000000     6.000000000
C    -1.357000000     1.123000000     6.360000000
H    -1.431000000     2.066000000     6.895000000
C    -0.108000000     0.628000000     5.957000000
O     1.072000000     1.374000000     6.109000000
C     2.310000000     0.774000000     5.990000000
C     3.184000000     1.218000000     5.038000000
H     2.972000000     2.072000000     4.398000000
C     2.624000000    -0.357000000     6.796000000
H     1.901000000    -0.668000000     7.546000000
C     3.731000000    -1.091000000     6.541000000
H     3.891000000    -1.967000000     7.166000000
C     4.674000000    -0.591000000     5.667000000
H     5.650000000    -1.064000000     5.605000000
C     4.368000000     0.564000000     4.961000000
O     5.238000000     1.146000000     4.063000000
C     5.350000000     0.915000000     2.720000000
C     6.110000000     1.701000000     1.864000000
H     6.686000000     2.516000000     2.294000000
C     6.134000000     1.425000000     0.484000000
O     7.019000000     2.194000000    -0.273000000
C     6.692000000     2.489000000    -1.521000000
C     5.636000000     3.376000000    -1.672000000
H     5.004000000     3.781000000    -0.886000000
C     7.279000000     1.863000000    -2.590000000
H     8.017000000     1.080000000    -2.436000000
C     6.843000000     2.109000000    -3.893000000
H     7.346000000     1.648000000    -4.739000000
C     5.814000000     2.995000000    -4.131000000
H     5.448000000     3.184000000    -5.137000000
C     5.171000000     3.529000000    -3.017000000
O     3.984000000     4.165000000    -3.260000000
C     2.811000000     3.630000000    -3.728000000
C     1.825000000     4.559000000    -4.135000000
H     1.878000000     5.629000000    -3.952000000
C     0.585000000     4.087000000    -4.600000000
O    -0.403000000     5.061000000    -4.998000000
C    -1.776000000     4.838000000    -4.741000000
C    -2.580000000     4.568000000    -5.787000000
H    -2.213000000     4.520000000    -6.809000000
C    -3.960000000     4.307000000    -5.551000000
H    -4.546000000     3.999000000    -6.413000000
C    -4.455000000     4.360000000    -4.265000000
H    -5.499000000     4.121000000    -4.079000000
C    -3.587000000     4.617000000    -3.180000000
C    -2.197000000     4.846000000    -3.400000000
H    -1.490000000     5.200000000    -2.654000000
C     1.678000000     1.799000000     0.813000000
H     2.540000000     1.891000000     1.469000000
C     1.118000000     0.495000000     0.659000000
H     1.468000000    -0.298000000     1.314000000
C     0.192000000     0.269000000    -0.320000000
C    -0.253000000    -1.130000000    -0.595000000
H    -0.878000000    -1.486000000     0.227000000
H    -1.034000000    -1.183000000    -1.357000000
H     0.556000000    -1.839000000    -0.784000000
C    -0.324000000     1.370000000    -1.022000000
H    -1.144000000     1.230000000    -1.721000000
C     0.190000000     2.665000000    -0.833000000
H    -0.070000000     3.515000000    -1.458000000
C     1.231000000     2.855000000     0.090000000
C     1.903000000     4.164000000     0.268000000
O     1.504000000     5.168000000    -0.286000000
O     2.997000000     4.293000000     0.872000000
O     3.257000000     7.068000000     0.633000000
H     2.885000000     6.199000000     0.788000000
H     2.665000000     7.472000000    -0.002000000
O     1.630000000     7.176000000    -1.931000000
H     0.774000000     7.541000000    -1.708000000
H     1.657000000     6.333000000    -1.479000000
O     6.672000000     7.955000000    -3.305000000
H     6.230000000     7.421000000    -2.645000000
H     7.571000000     8.035000000    -2.986000000
O     8.157000000     5.599000000     0.408000000
H     9.053000000     5.371000000     0.657000000
H     7.612000000     4.949000000     0.850000000
O     0.537000000     4.668000000     3.713000000
H     1.487000000     4.576000000     3.786000000
H     0.245000000     4.844000000     4.607000000
O     4.958000000     6.600000000    -1.692000000
H     4.345000000     6.106000000    -2.237000000
H     4.532000000     6.649000000    -0.836000000
O     3.577000000     4.491000000     3.525000000
H     3.992000000     5.351000000     3.597000000
H     3.537000000     4.323000000     2.583000000
O     5.045000000     4.032000000     5.826000000
H     4.917000000     4.880000000     6.251000000
H     4.492000000     4.068000000     5.047000000
O    -3.763000000     5.145000000     2.777000000
H    -3.479000000     5.085000000     3.689000000
H    -3.123000000     4.624000000     2.292000000
O     1.114000000     9.134000000     0.275000000
H     0.381000000     9.260000000    -0.327000000
H     0.759000000     8.586000000     0.974000000
O    -1.026000000     5.703000000     0.012000000
H    -0.134000000     5.436000000    -0.210000000
H    -1.237000000     5.202000000     0.800000000
O     3.683000000    10.130000000    -0.385000000
H     3.446000000    10.667000000    -1.141000000
H     2.851000000     9.771000000    -0.076000000
O     3.690000000     8.037000000    -4.039000000
H     4.568000000     8.107000000    -3.666000000
H     3.128000000     7.829000000    -3.291000000
O     4.499000000     7.396000000     2.901000000
H     4.605000000     8.347000000     2.865000000
H     4.042000000     7.175000000     2.089000000
O    -1.919000000     3.288000000     2.026000000
H    -1.467000000     2.721000000     2.651000000
H    -1.737000000     2.896000000     1.172000000
O    -1.887000000     9.352000000     2.266000000
H    -1.170000000     8.881000000     2.692000000
H    -2.589000000     9.356000000     2.916000000
O     0.271000000     7.510000000     2.718000000
H     0.373000000     6.564000000     2.613000000
H     0.266000000     7.646000000     3.665000000
O     5.745000000     4.843000000     1.679000000
H     5.856000000     5.682000000     1.232000000
H     4.820000000     4.628000000     1.560000000
O    -1.214000000     8.265000000    -1.184000000
H    -1.023000000     7.385000000    -0.860000000
H    -2.150000000     8.383000000    -1.021000000
