218
-1456.84587
C    -1.095000000     0.500000000     5.648000000
H    -0.383000000    -0.274000000     5.922000000
C    -1.979000000     0.329000000     4.602000000
C    -2.767000000     1.344000000     4.177000000
H    -3.351000000     1.221000000     3.269000000
C    -1.887000000    -0.937000000     3.774000000
O    -0.988000000    -1.904000000     4.488000000
H    -1.328000000    -0.712000000     2.853000000
O    -3.140000000    -1.459000000     3.551000000
C    -3.549000000    -2.069000000     2.356000000
C    -4.171000000    -1.305000000     1.439000000
H    -4.571000000    -0.332000000     1.716000000
C    -4.319000000    -1.754000000     0.134000000
O    -4.856000000    -0.964000000    -0.772000000
C    -3.894000000    -3.011000000    -0.248000000
C    -4.048000000    -3.607000000    -1.618000000
H    -4.088000000    -4.697000000    -1.658000000
C    -2.864000000    -3.145000000    -2.490000000
C    -1.792000000    -3.946000000    -2.720000000
H    -1.712000000    -4.913000000    -2.230000000
H    -5.030000000    -3.330000000    -2.008000000
C    -3.151000000    -3.758000000     0.652000000
H    -2.746000000    -4.693000000     0.272000000
C    -2.969000000    -3.262000000     1.960000000
C    -2.087000000    -4.098000000     2.917000000
H    -2.199000000    -5.114000000     2.531000000
H    -2.384000000    -3.990000000     3.962000000
C    -0.614000000    -3.745000000     2.846000000
C     0.273000000    -4.364000000     1.954000000
H    -0.117000000    -5.175000000     1.345000000
C    -0.152000000    -2.666000000     3.676000000
C     1.241000000    -2.331000000     3.616000000
H     1.650000000    -1.520000000     4.213000000
C     2.057000000    -3.011000000     2.722000000
O     3.371000000    -2.531000000     2.704000000
C     3.557000000    -1.796000000     1.489000000
C     4.271000000    -0.536000000     1.846000000
C     5.186000000    -0.001000000     0.946000000
H     5.653000000    -0.612000000     0.177000000
C     3.708000000     0.315000000     2.856000000
H     2.914000000    -0.040000000     3.508000000
O     4.155000000    -2.644000000     0.398000000
H     2.581000000    -1.467000000     1.103000000
C     1.595000000    -3.996000000     1.776000000
C     2.511000000    -4.865000000     0.936000000
H     2.099000000    -5.873000000     0.852000000
H     3.542000000    -4.934000000     1.291000000
C     2.551000000    -4.292000000    -0.425000000
C     1.576000000    -4.568000000    -1.302000000
H     0.756000000    -5.222000000    -1.016000000
C     3.381000000    -3.198000000    -0.610000000
C     3.489000000    -2.590000000    -1.835000000
H     4.254000000    -1.833000000    -1.991000000
C     2.622000000    -2.993000000    -2.852000000
O     2.563000000    -2.262000000    -4.006000000
C     1.542000000    -1.193000000    -3.969000000
C     2.054000000     0.186000000    -4.511000000
C     3.368000000     0.513000000    -4.251000000
H     4.076000000    -0.091000000    -3.690000000
C     1.142000000     1.058000000    -5.123000000
H     0.088000000     0.810000000    -5.219000000
O     0.325000000    -1.612000000    -4.671000000
H     1.177000000    -1.092000000    -2.937000000
C     1.694000000    -4.020000000    -2.567000000
C     0.584000000    -4.353000000    -3.607000000
H     0.305000000    -5.405000000    -3.514000000
H     0.980000000    -4.313000000    -4.624000000
C    -0.677000000    -3.525000000    -3.539000000
C    -0.731000000    -2.222000000    -4.029000000
C    -1.901000000    -1.505000000    -3.950000000
H    -2.024000000    -0.533000000    -4.420000000
C    -2.931000000    -1.924000000    -3.191000000
O    -3.995000000    -0.983000000    -2.950000000
C    -3.924000000    -0.342000000    -1.669000000
H    -2.896000000    -0.515000000    -1.318000000
C    -4.085000000     1.181000000    -1.628000000
C    -4.734000000     1.872000000    -0.618000000
H    -5.187000000     1.411000000     0.256000000
C    -3.482000000     1.931000000    -2.674000000
H    -2.967000000     1.333000000    -3.422000000
C    -3.675000000     3.289000000    -2.781000000
O    -2.807000000     3.991000000    -3.558000000
C    -4.448000000     3.913000000    -1.817000000
H    -4.506000000     4.996000000    -1.892000000
C    -4.947000000     3.242000000    -0.731000000
O    -5.721000000     3.940000000     0.177000000
C    -5.763000000     3.634000000     1.554000000
C    -4.588000000     3.635000000     2.256000000
H    -3.630000000     3.959000000     1.859000000
C    -6.876000000     3.064000000     2.070000000
H    -7.759000000     3.017000000     1.439000000
C    -6.912000000     2.769000000     3.418000000
H    -7.865000000     2.453000000     3.836000000
C    -5.754000000     2.967000000     4.218000000
H    -5.788000000     2.686000000     5.268000000
C    -4.568000000     3.443000000     3.661000000
O    -3.506000000     3.659000000     4.442000000
C    -2.725000000     2.570000000     4.865000000
C    -1.795000000     2.836000000     5.908000000
H    -1.761000000     3.859000000     6.274000000
C    -1.024000000     1.706000000     6.312000000
O     0.054000000     1.895000000     7.159000000
C     1.412000000     2.021000000     6.778000000
C     1.764000000     2.290000000     5.455000000
H     0.902000000     2.333000000     4.794000000
C     2.474000000     1.880000000     7.745000000
H     2.365000000     1.775000000     8.821000000
C     3.764000000     1.980000000     7.282000000
H     4.568000000     1.838000000     7.999000000
C     4.123000000     2.267000000     5.986000000
H     5.177000000     2.376000000     5.745000000
C     3.056000000     2.418000000     5.064000000
O     3.283000000     2.616000000     3.712000000
C     3.958000000     1.736000000     2.880000000
C     4.870000000     2.220000000     1.979000000
H     5.031000000     3.291000000     1.894000000
C     5.495000000     1.372000000     1.019000000
O     6.402000000     1.944000000     0.192000000
C     6.589000000     1.492000000    -1.094000000
C     5.631000000     1.788000000    -2.017000000
H     4.699000000     2.267000000    -1.728000000
C     7.657000000     0.685000000    -1.387000000
H     8.399000000     0.369000000    -0.658000000
C     7.905000000     0.521000000    -2.719000000
H     8.766000000    -0.092000000    -2.972000000
C     7.077000000     1.039000000    -3.715000000
H     7.228000000     0.937000000    -4.786000000
C     5.904000000     1.656000000    -3.310000000
O     5.124000000     2.213000000    -4.337000000
C     3.770000000     1.831000000    -4.597000000
C     2.918000000     2.624000000    -5.339000000
H     3.293000000     3.578000000    -5.699000000
C     1.621000000     2.265000000    -5.574000000
O     0.776000000     2.886000000    -6.474000000
C    -0.588000000     2.990000000    -6.218000000
C    -1.452000000     2.604000000    -7.224000000
H    -1.032000000     2.195000000    -8.139000000
C    -2.801000000     2.717000000    -7.003000000
H    -3.516000000     2.283000000    -7.697000000
C    -3.276000000     3.185000000    -5.772000000
H    -4.353000000     3.286000000    -5.669000000
C    -2.377000000     3.558000000    -4.782000000
C    -0.991000000     3.472000000    -5.005000000
H    -0.324000000     3.797000000    -4.210000000
C     1.559000000     2.065000000    -0.004000000
H     2.216000000     2.634000000     0.648000000
C     1.185000000     0.759000000     0.368000000
H     1.632000000     0.279000000     1.235000000
C     0.235000000     0.069000000    -0.363000000
C    -0.088000000    -1.352000000     0.082000000
H    -1.080000000    -1.667000000    -0.249000000
H     0.721000000    -1.983000000    -0.292000000
H    -0.220000000    -1.281000000     1.163000000
C    -0.299000000     0.619000000    -1.512000000
H    -1.044000000     0.095000000    -2.106000000
C     0.044000000     1.940000000    -1.969000000
H    -0.527000000     2.349000000    -2.799000000
C     0.946000000     2.635000000    -1.132000000
C     1.267000000     4.085000000    -1.396000000
O     0.899000000     4.651000000    -2.422000000
O     1.843000000     4.733000000    -0.548000000
O    -1.483000000     5.540000000     3.207000000
H    -0.772000000     5.061000000     2.781000000
H    -2.281000000     5.122000000     2.883000000
O     4.443000000     5.274000000    -0.645000000
H     3.517000000     5.374000000    -0.868000000
H     4.498000000     5.542000000     0.272000000
O    -3.715000000     7.277000000    -4.904000000
H    -3.587000000     8.172000000    -4.590000000
H    -3.182000000     6.739000000    -4.318000000
O     5.817000000     7.825000000    -2.459000000
H     5.580000000     7.000000000    -2.881000000
H     5.253000000     8.477000000    -2.875000000
O     0.234000000     6.208000000    -6.543000000
H     0.256000000     5.387000000    -6.053000000
H     1.142000000     6.357000000    -6.804000000
O     0.988000000     4.835000000     2.208000000
H     1.765000000     5.004000000     2.740000000
H     1.319000000     4.776000000     1.312000000
O     1.945000000     8.466000000    -4.984000000
H     2.149000000     7.559000000    -4.757000000
H     1.161000000     8.670000000    -4.474000000
O    -1.281000000     9.437000000     0.133000000
H    -0.634000000     8.965000000     0.658000000
H    -1.980000000     8.799000000    -0.016000000
O    -1.154000000     6.680000000    -3.617000000
H    -0.842000000     5.929000000    -3.113000000
H    -0.439000000     7.315000000    -3.568000000
O     1.441000000     9.461000000    -2.544000000
H     1.118000000     8.897000000    -1.842000000
H     2.338000000     9.166000000    -2.696000000
O    -3.121000000     7.598000000    -0.305000000
H    -3.825000000     7.656000000    -0.950000000
H    -2.727000000     6.739000000    -0.457000000
O     5.119000000     5.157000000    -3.206000000
H     6.049000000     4.998000000    -3.364000000
H     5.002000000     4.984000000    -2.272000000
O     7.167000000     6.238000000    -0.492000000
H     7.039000000     6.920000000    -1.151000000
H     6.392000000     5.681000000    -0.571000000
O     1.192000000     7.352000000    -1.019000000
H     1.561000000     7.602000000    -0.172000000
H     1.249000000     6.397000000    -1.033000000
O     5.135000000     8.440000000     0.100000000
H     5.169000000     7.978000000    -0.737000000
H     5.801000000     9.124000000     0.024000000
O     2.755000000     8.175000000     1.165000000
H     2.849000000     7.497000000     1.833000000
H     3.654000000     8.415000000     0.939000000
O    -1.772000000     4.380000000    -0.147000000
H    -1.161000000     3.807000000     0.316000000
H    -1.229000000     4.846000000    -0.783000000
O     3.362000000     6.115000000     2.961000000
H     4.286000000     5.876000000     2.886000000
H     3.268000000     6.428000000     3.861000000
O     2.641000000     6.173000000    -4.028000000
H     2.056000000     5.779000000    -3.381000000
H     3.515000000     5.879000000    -3.770000000
