218
-1473.56621
C    -5.607000000     0.021000000    -1.431000000
H    -5.347000000     0.096000000    -2.484000000
C    -4.938000000     0.816000000    -0.534000000
C    -5.154000000     0.524000000     0.810000000
H    -4.593000000     1.131000000     1.516000000
C    -3.794000000     1.762000000    -0.913000000
O    -3.953000000     2.265000000    -2.301000000
H    -2.836000000     1.224000000    -0.965000000
O    -3.873000000     2.968000000    -0.095000000
C    -2.652000000     3.536000000     0.259000000
C    -2.221000000     3.343000000     1.577000000
H    -2.760000000     2.681000000     2.250000000
C    -0.977000000     3.834000000     1.943000000
O    -0.495000000     3.630000000     3.175000000
C    -0.191000000     4.654000000     1.058000000
C     1.131000000     5.234000000     1.394000000
H     1.383000000     6.019000000     0.679000000
C     2.200000000     4.158000000     1.263000000
C     3.034000000     4.084000000     0.123000000
H     2.754000000     4.749000000    -0.689000000
H     1.186000000     5.612000000     2.418000000
C    -0.710000000     4.896000000    -0.203000000
H    -0.109000000     5.492000000    -0.886000000
C    -1.896000000     4.393000000    -0.675000000
C    -2.394000000     4.609000000    -2.098000000
H    -2.089000000     5.608000000    -2.418000000
H    -3.482000000     4.698000000    -2.065000000
C    -1.974000000     3.458000000    -2.962000000
C    -0.862000000     3.550000000    -3.718000000
H    -0.287000000     4.472000000    -3.696000000
C    -2.806000000     2.290000000    -2.985000000
C    -2.433000000     1.144000000    -3.712000000
H    -3.004000000     0.219000000    -3.734000000
C    -1.134000000     1.203000000    -4.283000000
O    -0.700000000     0.006000000    -4.811000000
C     0.377000000    -0.753000000    -4.172000000
C    -0.030000000    -2.201000000    -4.047000000
C     0.937000000    -3.210000000    -4.198000000
H     1.963000000    -3.020000000    -4.503000000
C    -1.315000000    -2.559000000    -3.640000000
H    -2.024000000    -1.775000000    -3.387000000
O     1.600000000    -0.441000000    -4.888000000
H     0.401000000    -0.431000000    -3.121000000
C    -0.359000000     2.391000000    -4.334000000
C     1.036000000     2.332000000    -5.079000000
H     1.231000000     3.371000000    -5.351000000
H     0.818000000     1.780000000    -5.995000000
C     2.247000000     1.722000000    -4.151000000
C     2.972000000     2.492000000    -3.268000000
H     2.780000000     3.561000000    -3.216000000
C     2.514000000     0.351000000    -4.215000000
C     3.369000000    -0.295000000    -3.306000000
H     3.491000000    -1.369000000    -3.198000000
C     3.965000000     0.466000000    -2.322000000
O     4.749000000    -0.099000000    -1.368000000
C     4.314000000    -0.106000000     0.030000000
C     4.317000000    -1.481000000     0.735000000
C     4.278000000    -2.578000000    -0.091000000
H     4.418000000    -2.504000000    -1.166000000
C     4.196000000    -1.598000000     2.120000000
H     4.199000000    -0.740000000     2.787000000
O     4.915000000     0.944000000     0.773000000
H     3.235000000     0.105000000     0.025000000
C     3.866000000     1.870000000    -2.408000000
C     4.574000000     2.759000000    -1.465000000
H     4.818000000     3.696000000    -1.970000000
H     5.550000000     2.321000000    -1.247000000
C     3.911000000     2.978000000    -0.105000000
C     4.102000000     2.054000000     0.974000000
C     3.480000000     2.293000000     2.161000000
H     3.632000000     1.665000000     3.034000000
C     2.449000000     3.217000000     2.283000000
O     1.742000000     3.253000000     3.366000000
C     0.441000000     2.599000000     3.346000000
H     0.577000000     1.872000000     2.532000000
C     0.064000000     1.688000000     4.588000000
C    -1.263000000     1.325000000     4.727000000
H    -2.014000000     1.734000000     4.056000000
C     1.076000000     1.207000000     5.410000000
H     2.073000000     1.577000000     5.185000000
C     0.787000000     0.297000000     6.354000000
O     1.794000000    -0.386000000     7.108000000
C    -0.517000000    -0.101000000     6.506000000
H    -0.669000000    -0.652000000     7.431000000
C    -1.565000000     0.498000000     5.839000000
O    -2.881000000     0.065000000     6.170000000
C    -4.033000000     0.493000000     5.505000000
C    -4.462000000    -0.256000000     4.373000000
H    -4.006000000    -1.239000000     4.287000000
C    -4.631000000     1.699000000     5.881000000
H    -4.269000000     2.265000000     6.735000000
C    -5.767000000     2.108000000     5.143000000
H    -6.263000000     3.047000000     5.373000000
C    -6.196000000     1.387000000     4.009000000
H    -7.128000000     1.735000000     3.572000000
C    -5.575000000     0.181000000     3.650000000
O    -6.162000000    -0.548000000     2.674000000
C    -6.062000000    -0.399000000     1.292000000
C    -6.754000000    -1.165000000     0.315000000
H    -7.475000000    -1.943000000     0.551000000
C    -6.442000000    -0.999000000    -1.013000000
O    -6.981000000    -1.877000000    -1.966000000
C    -6.193000000    -2.337000000    -3.000000000
C    -5.041000000    -3.056000000    -2.685000000
H    -4.801000000    -3.385000000    -1.677000000
C    -6.353000000    -1.940000000    -4.313000000
H    -7.172000000    -1.294000000    -4.620000000
C    -5.423000000    -2.250000000    -5.251000000
H    -5.496000000    -1.935000000    -6.289000000
C    -4.306000000    -3.034000000    -4.964000000
H    -3.586000000    -3.236000000    -5.753000000
C    -4.143000000    -3.348000000    -3.668000000
O    -3.057000000    -4.169000000    -3.271000000
C    -1.731000000    -3.914000000    -3.549000000
C    -0.872000000    -4.945000000    -3.787000000
H    -1.123000000    -5.969000000    -3.519000000
C     0.517000000    -4.545000000    -3.944000000
O     1.382000000    -5.588000000    -4.066000000
C     2.673000000    -5.395000000    -3.508000000
C     2.768000000    -5.241000000    -2.121000000
H     1.890000000    -5.164000000    -1.484000000
C     3.790000000    -5.468000000    -4.331000000
H     3.700000000    -5.434000000    -5.413000000
C     5.017000000    -5.533000000    -3.772000000
H     5.923000000    -5.771000000    -4.323000000
C     5.151000000    -5.363000000    -2.374000000
H     6.092000000    -5.484000000    -1.842000000
C     4.039000000    -5.100000000    -1.576000000
O     4.289000000    -4.948000000    -0.230000000
C     4.132000000    -3.817000000     0.500000000
C     4.014000000    -4.021000000     1.847000000
H     3.734000000    -4.997000000     2.234000000
C     4.151000000    -2.861000000     2.639000000
O     4.284000000    -3.082000000     3.964000000
C     4.255000000    -2.116000000     4.976000000
C     5.463000000    -1.736000000     5.577000000
H     6.414000000    -2.145000000     5.244000000
C     5.529000000    -0.919000000     6.691000000
H     6.469000000    -0.667000000     7.175000000
C     4.248000000    -0.498000000     7.101000000
H     4.319000000     0.180000000     7.947000000
C     3.019000000    -0.866000000     6.575000000
C     3.025000000    -1.686000000     5.461000000
H     2.114000000    -1.935000000     4.924000000
C    -1.969000000    -1.519000000     0.277000000
H    -3.000000000    -1.501000000     0.620000000
C    -1.307000000    -0.302000000     0.244000000
H    -1.788000000     0.619000000     0.563000000
C     0.026000000    -0.192000000    -0.229000000
C     0.550000000     1.196000000    -0.632000000
H     1.641000000     1.206000000    -0.668000000
H     0.271000000     1.454000000    -1.656000000
H     0.263000000     2.001000000     0.048000000
C     0.702000000    -1.342000000    -0.701000000
H     1.735000000    -1.248000000    -1.026000000
C     0.104000000    -2.546000000    -0.457000000
H     0.671000000    -3.443000000    -0.690000000
C    -1.199000000    -2.679000000     0.032000000
C    -1.749000000    -4.036000000     0.435000000
O    -1.086000000    -5.050000000     0.409000000
O    -2.876000000    -4.154000000     0.813000000
O     0.191000000    -7.250000000     4.163000000
H    -0.314000000    -8.060000000     4.086000000
H     0.333000000    -7.145000000     5.104000000
O    -5.286000000    -5.256000000     0.771000000
H    -5.615000000    -5.241000000     1.670000000
H    -4.560000000    -4.632000000     0.770000000
O     0.942000000    -2.140000000     2.339000000
H     0.625000000    -1.903000000     1.468000000
H     0.504000000    -2.968000000     2.537000000
O    -4.750000000    -7.749000000    -3.851000000
H    -5.613000000    -7.419000000    -4.100000000
H    -4.519000000    -7.249000000    -3.069000000
O    -6.027000000    -3.946000000     3.602000000
H    -6.253000000    -4.647000000     4.213000000
H    -6.682000000    -3.267000000     3.763000000
O    -0.834000000    -7.235000000    -0.735000000
H    -0.997000000    -6.414000000    -0.270000000
H    -1.330000000    -7.151000000    -1.550000000
O    -3.697000000    -6.509000000    -1.300000000
H    -4.269000000    -6.306000000    -0.561000000
H    -3.169000000    -5.719000000    -1.418000000
O     0.232000000    -4.882000000     2.734000000
H     0.531000000    -5.739000000     3.037000000
H    -0.117000000    -5.046000000     1.858000000
O     0.833000000    -9.405000000     0.050000000
H     0.596000000    -9.617000000     0.953000000
H     0.208000000    -8.728000000    -0.209000000
O    -2.108000000    -2.941000000     5.561000000
H    -2.491000000    -3.305000000     4.762000000
H    -2.267000000    -2.000000000     5.496000000
O    -3.512000000    -9.837000000    -1.160000000
H    -3.083000000   -10.166000000    -1.950000000
H    -3.832000000    -8.968000000    -1.405000000
O    -2.701000000    -6.542000000     2.364000000
H    -2.293000000    -5.829000000     1.872000000
H    -2.377000000    -7.338000000     1.944000000
O    -5.278000000    -7.591000000     3.252000000
H    -5.154000000    -7.551000000     4.200000000
H    -4.641000000    -6.969000000     2.900000000
O    -2.071000000    -8.986000000     1.120000000
H    -2.941000000    -9.354000000     0.969000000
H    -1.695000000    -8.894000000     0.245000000
O    -7.863000000    -6.064000000    -0.154000000
H    -6.972000000    -5.769000000     0.032000000
H    -8.203000000    -6.348000000     0.695000000
O    -3.399000000    -3.262000000     3.206000000
H    -4.304000000    -3.489000000     3.418000000
H    -3.210000000    -3.752000000     2.406000000
O     0.434000000    -4.039000000     5.345000000
H    -0.423000000    -3.681000000     5.576000000
H     0.317000000    -4.389000000     4.462000000
O    -0.952000000    -9.829000000     3.560000000
H    -1.503000000    -9.907000000     4.338000000
H    -1.570000000    -9.691000000     2.842000000
O    -3.073000000    -6.996000000     5.339000000
H    -2.719000000    -7.087000000     4.454000000
H    -2.693000000    -6.179000000     5.665000000
