218
-1458.82949
C    -0.800000000     1.380000000     4.769000000
H     0.122000000     0.806000000     4.822000000
C    -1.961000000     0.795000000     4.217000000
C    -3.018000000     1.678000000     4.086000000
H    -3.971000000     1.324000000     3.700000000
C    -1.971000000    -0.585000000     3.658000000
O    -1.288000000    -1.461000000     4.494000000
H    -1.438000000    -0.653000000     2.699000000
O    -3.343000000    -0.975000000     3.481000000
C    -3.697000000    -1.698000000     2.332000000
C    -4.171000000    -0.921000000     1.272000000
H    -4.333000000     0.150000000     1.367000000
C    -4.325000000    -1.485000000     0.011000000
O    -4.775000000    -0.678000000    -0.970000000
C    -3.957000000    -2.823000000    -0.134000000
C    -4.063000000    -3.538000000    -1.502000000
H    -4.031000000    -4.609000000    -1.291000000
C    -2.987000000    -3.179000000    -2.486000000
C    -1.844000000    -3.990000000    -2.533000000
H    -1.889000000    -4.927000000    -1.985000000
H    -4.970000000    -3.308000000    -2.064000000
C    -3.424000000    -3.516000000     0.943000000
H    -3.137000000    -4.559000000     0.835000000
C    -3.238000000    -3.004000000     2.170000000
C    -2.565000000    -3.847000000     3.231000000
H    -2.574000000    -4.922000000     3.039000000
H    -3.042000000    -3.600000000     4.182000000
C    -1.063000000    -3.512000000     3.284000000
C    -0.159000000    -4.320000000     2.558000000
H    -0.433000000    -5.221000000     2.016000000
C    -0.494000000    -2.410000000     3.995000000
C     0.847000000    -2.165000000     3.985000000
H     1.247000000    -1.359000000     4.594000000
C     1.744000000    -2.975000000     3.191000000
O     2.982000000    -2.505000000     3.080000000
C     3.313000000    -1.812000000     1.878000000
C     4.250000000    -0.637000000     2.264000000
C     5.222000000    -0.277000000     1.373000000
H     5.380000000    -0.731000000     0.398000000
C     4.052000000     0.094000000     3.445000000
H     3.208000000    -0.149000000     4.085000000
O     3.914000000    -2.659000000     0.939000000
H     2.454000000    -1.372000000     1.350000000
C     1.183000000    -3.997000000     2.480000000
C     2.079000000    -4.818000000     1.571000000
H     1.871000000    -5.888000000     1.636000000
H     3.091000000    -4.792000000     1.981000000
C     2.326000000    -4.294000000     0.133000000
C     1.444000000    -4.663000000    -0.874000000
H     0.762000000    -5.501000000    -0.748000000
C     3.226000000    -3.238000000    -0.126000000
C     3.321000000    -2.687000000    -1.399000000
H     4.049000000    -1.899000000    -1.572000000
C     2.537000000    -3.154000000    -2.473000000
O     2.527000000    -2.353000000    -3.585000000
C     1.451000000    -1.437000000    -3.705000000
C     2.036000000    -0.106000000    -4.137000000
C     3.237000000     0.365000000    -3.627000000
H     3.848000000    -0.174000000    -2.907000000
C     1.480000000     0.606000000    -5.188000000
H     0.592000000     0.194000000    -5.660000000
O     0.433000000    -2.027000000    -4.539000000
H     1.010000000    -1.292000000    -2.708000000
C     1.560000000    -4.101000000    -2.180000000
C     0.517000000    -4.568000000    -3.252000000
H     0.135000000    -5.580000000    -3.099000000
H     1.009000000    -4.720000000    -4.215000000
C    -0.694000000    -3.648000000    -3.228000000
C    -0.670000000    -2.442000000    -3.941000000
C    -1.722000000    -1.632000000    -3.943000000
H    -1.768000000    -0.705000000    -4.509000000
C    -2.901000000    -2.010000000    -3.215000000
O    -3.836000000    -0.998000000    -3.057000000
C    -3.795000000    -0.198000000    -1.897000000
H    -2.759000000    -0.326000000    -1.550000000
C    -3.947000000     1.269000000    -2.166000000
C    -4.384000000     2.103000000    -1.154000000
H    -4.614000000     1.648000000    -0.194000000
C    -3.454000000     1.833000000    -3.349000000
H    -3.103000000     1.183000000    -4.146000000
C    -3.461000000     3.204000000    -3.522000000
O    -2.977000000     3.764000000    -4.649000000
C    -4.037000000     4.079000000    -2.508000000
H    -3.987000000     5.146000000    -2.712000000
C    -4.481000000     3.496000000    -1.302000000
O    -4.841000000     4.434000000    -0.332000000
C    -5.360000000     4.346000000     0.952000000
C    -4.541000000     4.029000000     1.984000000
H    -3.469000000     3.895000000     1.858000000
C    -6.722000000     4.484000000     1.189000000
H    -7.422000000     4.682000000     0.381000000
C    -7.231000000     4.372000000     2.517000000
H    -8.300000000     4.491000000     2.677000000
C    -6.333000000     4.029000000     3.568000000
H    -6.636000000     4.074000000     4.611000000
C    -4.959000000     3.909000000     3.270000000
O    -4.019000000     3.807000000     4.326000000
C    -2.926000000     3.007000000     4.436000000
C    -1.795000000     3.526000000     4.985000000
H    -1.865000000     4.599000000     5.142000000
C    -0.709000000     2.707000000     5.153000000
O     0.437000000     3.264000000     5.723000000
C     1.582000000     2.667000000     6.171000000
C     2.705000000     2.704000000     5.332000000
H     2.713000000     3.241000000     4.387000000
C     1.556000000     1.872000000     7.321000000
H     0.713000000     1.695000000     7.984000000
C     2.703000000     1.211000000     7.639000000
H     2.740000000     0.535000000     8.490000000
C     3.804000000     1.215000000     6.819000000
H     4.587000000     0.498000000     7.050000000
C     3.831000000     1.974000000     5.645000000
O     4.882000000     1.951000000     4.859000000
C     4.888000000     1.191000000     3.691000000
C     5.857000000     1.555000000     2.775000000
H     6.362000000     2.518000000     2.801000000
C     5.935000000     0.866000000     1.591000000
O     6.769000000     1.322000000     0.672000000
C     6.758000000     0.928000000    -0.704000000
C     5.945000000     1.719000000    -1.546000000
H     5.347000000     2.531000000    -1.138000000
C     7.438000000    -0.136000000    -1.209000000
H     8.020000000    -0.789000000    -0.564000000
C     7.350000000    -0.418000000    -2.607000000
H     7.954000000    -1.174000000    -3.103000000
C     6.602000000     0.406000000    -3.451000000
H     6.575000000     0.087000000    -4.489000000
C     5.877000000     1.468000000    -2.907000000
O     4.994000000     2.122000000    -3.735000000
C     3.815000000     1.565000000    -4.123000000
C     3.121000000     2.252000000    -5.131000000
H     3.507000000     3.235000000    -5.388000000
C     1.920000000     1.844000000    -5.623000000
O     1.172000000     2.582000000    -6.549000000
C    -0.194000000     2.491000000    -6.610000000
C    -0.741000000     2.013000000    -7.771000000
H    -0.043000000     1.688000000    -8.538000000
C    -2.134000000     2.275000000    -7.893000000
H    -2.796000000     2.127000000    -8.742000000
C    -2.903000000     2.711000000    -6.769000000
H    -3.975000000     2.842000000    -6.889000000
C    -2.272000000     3.138000000    -5.586000000
C    -0.926000000     3.021000000    -5.502000000
H    -0.323000000     3.359000000    -4.663000000
C     2.079000000     2.007000000     0.148000000
H     2.806000000     2.403000000     0.853000000
C     1.391000000     0.765000000     0.430000000
H     1.547000000     0.269000000     1.384000000
C     0.508000000     0.202000000    -0.516000000
C    -0.245000000    -1.080000000    -0.145000000
H    -1.321000000    -1.025000000     0.029000000
H    -0.146000000    -1.803000000    -0.957000000
H     0.306000000    -1.547000000     0.675000000
C     0.112000000     0.905000000    -1.691000000
H    -0.757000000     0.711000000    -2.314000000
C     0.837000000     2.049000000    -1.927000000
H     0.510000000     2.619000000    -2.792000000
C     1.840000000     2.575000000    -1.097000000
C     2.497000000     3.853000000    -1.489000000
O     2.169000000     4.576000000    -2.383000000
O     3.460000000     4.203000000    -0.879000000
O     3.456000000     5.536000000     2.607000000
H     2.673000000     5.052000000     2.344000000
H     3.320000000     5.725000000     3.536000000
O     2.137000000    10.161000000    -3.233000000
H     2.467000000    10.093000000    -4.129000000
H     2.511000000     9.405000000    -2.782000000
O     3.217000000     7.781000000    -4.951000000
H     3.666000000     8.575000000    -5.240000000
H     3.921000000     7.196000000    -4.673000000
O     4.200000000     5.693000000    -3.373000000
H     3.410000000     5.244000000    -3.071000000
H     4.908000000     5.072000000    -3.203000000
O     0.957000000     4.400000000     1.981000000
H     0.027000000     4.558000000     1.820000000
H     1.216000000     3.781000000     1.298000000
O    -0.527000000     7.074000000    -5.152000000
H    -0.025000000     6.519000000    -5.748000000
H    -0.142000000     6.911000000    -4.291000000
O    -1.778000000     6.677000000    -0.578000000
H    -1.194000000     6.285000000    -1.227000000
H    -1.538000000     7.604000000    -0.569000000
O     6.953000000     6.049000000    -2.067000000
H     7.599000000     6.738000000    -1.913000000
H     6.260000000     6.223000000    -1.431000000
O     6.031000000     8.231000000     0.828000000
H     5.876000000     8.629000000     1.685000000
H     5.253000000     7.697000000     0.668000000
O     5.466000000     4.144000000     0.637000000
H     4.640000000     4.314000000     0.184000000
H     5.676000000     3.235000000     0.419000000
O     0.343000000     6.235000000    -2.806000000
H     0.672000000     6.878000000    -2.179000000
H     1.020000000     5.559000000    -2.833000000
O     1.313000000     8.381000000    -0.415000000
H     1.944000000     8.339000000     0.304000000
H     0.883000000     9.230000000    -0.308000000
O     6.747000000     4.943000000     2.951000000
H     6.307000000     4.753000000     2.123000000
H     6.145000000     5.527000000     3.413000000
O     1.889000000     5.486000000    -6.255000000
H     2.402000000     6.193000000    -5.862000000
H     2.006000000     4.747000000    -5.659000000
O     3.987000000     8.271000000    -2.180000000
H     3.961000000     7.407000000    -2.591000000
H     3.626000000     8.132000000    -1.305000000
O     8.297000000     4.254000000    -0.339000000
H     7.925000000     4.616000000     0.466000000
H     7.691000000     4.528000000    -1.027000000
O     0.782000000     5.877000000     4.505000000
H     0.700000000     5.281000000     3.760000000
H     0.411000000     5.392000000     5.242000000
O    -1.537000000     5.536000000     2.235000000
H    -1.982000000     6.224000000     2.728000000
H    -1.673000000     5.772000000     1.317000000
O     3.464000000     6.677000000     0.218000000
H     3.647000000     6.564000000     1.151000000
H     3.292000000     5.792000000    -0.102000000
