218
-1446.89881
C    -1.116000000     0.615000000     5.391000000
H    -0.255000000    -0.016000000     5.596000000
C    -2.058000000     0.179000000     4.416000000
C    -3.028000000     1.015000000     3.999000000
H    -3.588000000     0.776000000     3.099000000
C    -1.961000000    -1.174000000     3.703000000
O    -1.281000000    -2.172000000     4.495000000
H    -1.330000000    -0.955000000     2.830000000
O    -3.252000000    -1.728000000     3.239000000
C    -3.300000000    -2.285000000     2.011000000
C    -3.969000000    -1.504000000     1.013000000
H    -4.355000000    -0.531000000     1.306000000
C    -4.002000000    -2.011000000    -0.279000000
O    -4.490000000    -1.177000000    -1.206000000
C    -3.408000000    -3.217000000    -0.643000000
C    -3.546000000    -3.632000000    -2.079000000
H    -3.588000000    -4.721000000    -2.156000000
C    -2.370000000    -3.089000000    -2.990000000
C    -1.175000000    -3.817000000    -2.964000000
H    -1.213000000    -4.734000000    -2.381000000
H    -4.494000000    -3.251000000    -2.465000000
C    -2.732000000    -3.912000000     0.342000000
H    -2.223000000    -4.845000000     0.117000000
C    -2.751000000    -3.532000000     1.678000000
C    -2.085000000    -4.380000000     2.701000000
H    -2.157000000    -5.388000000     2.288000000
H    -2.597000000    -4.448000000     3.664000000
C    -0.606000000    -3.964000000     2.945000000
C     0.348000000    -4.503000000     2.092000000
H     0.127000000    -5.257000000     1.341000000
C    -0.295000000    -2.957000000     3.817000000
C     1.033000000    -2.544000000     3.895000000
H     1.138000000    -1.564000000     4.352000000
C     2.026000000    -3.147000000     3.142000000
O     3.250000000    -2.443000000     3.071000000
C     3.546000000    -1.546000000     1.911000000
C     4.036000000    -0.186000000     2.314000000
C     4.865000000     0.410000000     1.337000000
H     5.301000000    -0.123000000     0.496000000
C     3.678000000     0.451000000     3.478000000
H     2.984000000     0.001000000     4.184000000
O     4.321000000    -2.273000000     0.959000000
H     2.548000000    -1.498000000     1.451000000
C     1.698000000    -4.229000000     2.264000000
C     2.775000000    -4.805000000     1.229000000
H     2.390000000    -5.790000000     0.959000000
H     3.726000000    -4.933000000     1.751000000
C     2.909000000    -4.018000000    -0.077000000
C     2.222000000    -4.428000000    -1.178000000
H     1.832000000    -5.438000000    -1.083000000
C     3.628000000    -2.789000000    -0.156000000
C     3.687000000    -2.087000000    -1.342000000
H     4.339000000    -1.218000000    -1.373000000
C     3.039000000    -2.531000000    -2.448000000
O     3.022000000    -1.746000000    -3.597000000
C     1.876000000    -0.810000000    -3.833000000
C     2.323000000     0.511000000    -4.374000000
C     3.492000000     1.121000000    -3.911000000
H     4.116000000     0.532000000    -3.242000000
C     1.452000000     1.207000000    -5.189000000
H     0.482000000     0.832000000    -5.502000000
O     0.933000000    -1.379000000    -4.686000000
H     1.382000000    -0.578000000    -2.879000000
C     2.198000000    -3.691000000    -2.408000000
C     1.277000000    -4.034000000    -3.587000000
H     0.983000000    -5.085000000    -3.609000000
H     1.751000000    -3.931000000    -4.566000000
C    -0.053000000    -3.268000000    -3.580000000
C    -0.208000000    -2.025000000    -4.154000000
C    -1.453000000    -1.345000000    -4.328000000
H    -1.426000000    -0.335000000    -4.727000000
C    -2.546000000    -1.874000000    -3.579000000
O    -3.624000000    -1.074000000    -3.306000000
C    -3.633000000    -0.406000000    -2.002000000
H    -2.641000000    -0.349000000    -1.530000000
C    -4.238000000     1.020000000    -2.123000000
C    -5.159000000     1.522000000    -1.165000000
H    -5.570000000     0.952000000    -0.336000000
C    -3.681000000     1.843000000    -3.069000000
H    -2.891000000     1.485000000    -3.723000000
C    -4.016000000     3.200000000    -3.173000000
O    -3.344000000     3.985000000    -4.161000000
C    -4.993000000     3.703000000    -2.284000000
H    -5.269000000     4.751000000    -2.362000000
C    -5.533000000     2.921000000    -1.287000000
O    -6.238000000     3.494000000    -0.315000000
C    -6.197000000     2.958000000     0.981000000
C    -5.262000000     3.366000000     1.882000000
H    -4.465000000     4.037000000     1.570000000
C    -7.059000000     1.976000000     1.427000000
H    -7.846000000     1.694000000     0.731000000
C    -7.018000000     1.461000000     2.726000000
H    -7.588000000     0.589000000     3.037000000
C    -6.054000000     1.917000000     3.604000000
H    -6.051000000     1.591000000     4.641000000
C    -5.128000000     2.867000000     3.138000000
O    -4.075000000     3.219000000     3.993000000
C    -3.121000000     2.286000000     4.514000000
C    -2.269000000     2.782000000     5.452000000
H    -2.294000000     3.796000000     5.843000000
C    -1.273000000     1.912000000     5.900000000
O    -0.349000000     2.388000000     6.825000000
C     0.986000000     2.035000000     6.957000000
C     1.879000000     2.249000000     5.906000000
H     1.547000000     2.771000000     5.012000000
C     1.483000000     1.447000000     8.109000000
H     0.844000000     1.100000000     8.917000000
C     2.899000000     1.395000000     8.325000000
H     3.181000000     0.960000000     9.281000000
C     3.729000000     1.614000000     7.260000000
H     4.809000000     1.604000000     7.377000000
C     3.251000000     1.974000000     5.981000000
O     4.092000000     2.325000000     4.964000000
C     4.320000000     1.650000000     3.752000000
C     5.061000000     2.291000000     2.755000000
H     5.395000000     3.295000000     3.006000000
C     5.252000000     1.754000000     1.514000000
O     6.133000000     2.373000000     0.600000000
C     6.293000000     2.208000000    -0.721000000
C     5.390000000     2.742000000    -1.640000000
H     4.466000000     3.212000000    -1.315000000
C     7.525000000     1.616000000    -1.129000000
H     8.251000000     1.210000000    -0.429000000
C     7.800000000     1.501000000    -2.479000000
H     8.684000000     0.999000000    -2.865000000
C     6.862000000     2.001000000    -3.376000000
H     7.089000000     1.958000000    -4.438000000
C     5.713000000     2.554000000    -2.993000000
O     4.852000000     3.146000000    -3.907000000
C     3.792000000     2.445000000    -4.423000000
C     2.853000000     3.144000000    -5.104000000
H     2.980000000     4.162000000    -5.462000000
C     1.703000000     2.506000000    -5.539000000
O     0.821000000     3.064000000    -6.423000000
C    -0.573000000     2.959000000    -6.322000000
C    -1.271000000     2.302000000    -7.321000000
H    -0.739000000     2.005000000    -8.221000000
C    -2.689000000     2.163000000    -7.327000000
H    -3.110000000     1.686000000    -8.208000000
C    -3.355000000     2.761000000    -6.252000000
H    -4.437000000     2.696000000    -6.164000000
C    -2.664000000     3.512000000    -5.264000000
C    -1.313000000     3.705000000    -5.375000000
H    -0.716000000     4.303000000    -4.692000000
C     1.371000000     2.418000000     0.417000000
H     2.128000000     2.936000000     1.001000000
C     0.911000000     1.101000000     0.654000000
H     1.208000000     0.655000000     1.599000000
C     0.117000000     0.507000000    -0.279000000
C    -0.443000000    -0.895000000    -0.060000000
H     0.308000000    -1.371000000     0.575000000
H    -1.397000000    -0.785000000     0.461000000
H    -0.494000000    -1.444000000    -1.002000000
C    -0.184000000     1.141000000    -1.454000000
H    -0.761000000     0.629000000    -2.220000000
C     0.207000000     2.416000000    -1.681000000
H    -0.114000000     2.952000000    -2.571000000
C     0.913000000     3.085000000    -0.729000000
C     1.297000000     4.584000000    -0.944000000
O     0.771000000     5.205000000    -1.856000000
O     1.805000000     5.165000000    -0.072000000
O    -1.784000000     5.318000000     2.383000000
H    -0.833000000     5.367000000     2.485000000
H    -1.912000000     4.881000000     1.541000000
O     4.027000000     6.382000000    -0.769000000
H     3.114000000     6.116000000    -0.658000000
H     4.253000000     6.811000000     0.056000000
O    -3.121000000     7.878000000    -3.937000000
H    -3.897000000     8.186000000    -3.468000000
H    -2.701000000     7.268000000    -3.329000000
O     1.985000000     9.680000000    -2.959000000
H     1.224000000     9.738000000    -3.537000000
H     1.816000000     8.909000000    -2.417000000
O     0.008000000     6.177000000    -6.668000000
H     0.285000000     6.274000000    -5.757000000
H     0.139000000     5.248000000    -6.860000000
O     0.933000000     5.265000000     2.467000000
H     1.794000000     5.269000000     2.884000000
H     1.116000000     5.089000000     1.544000000
O    -0.442000000     8.845000000    -4.682000000
H     0.111000000     8.102000000    -4.441000000
H    -1.267000000     8.690000000    -4.221000000
O    -1.694000000     9.371000000     0.422000000
H    -0.768000000     9.614000000     0.421000000
H    -1.761000000     8.687000000     1.088000000
O     0.647000000     8.172000000     1.751000000
H     0.584000000     7.247000000     1.992000000
H     0.587000000     8.640000000     2.583000000
O    -1.325000000     7.151000000    -1.755000000
H    -0.557000000     6.593000000    -1.875000000
H    -1.006000000     7.890000000    -1.238000000
O    -4.363000000     6.647000000     0.732000000
H    -4.848000000     6.342000000    -0.036000000
H    -3.546000000     6.148000000     0.713000000
O     3.659000000     6.785000000    -3.497000000
H     4.344000000     6.397000000    -4.042000000
H     3.980000000     6.683000000    -2.601000000
O     7.544000000     4.994000000    -0.384000000
H     7.559000000     5.161000000    -1.327000000
H     6.681000000     4.612000000    -0.222000000
O     1.231000000     7.898000000    -0.903000000
H     1.231000000     7.988000000     0.050000000
H     1.227000000     6.953000000    -1.055000000
O     5.690000000     9.281000000    -1.323000000
H     5.105000000     8.613000000    -0.965000000
H     5.117000000     9.855000000    -1.832000000
O     4.481000000     7.324000000     1.710000000
H     4.135000000     6.646000000     2.289000000
H     5.412000000     7.116000000     1.628000000
O    -2.551000000     4.429000000    -0.361000000
H    -2.210000000     5.046000000    -1.008000000
H    -2.092000000     3.610000000    -0.546000000
O     3.425000000     5.747000000     3.538000000
H     3.874000000     5.300000000     4.256000000
H     3.141000000     6.580000000     3.914000000
O     1.108000000     6.652000000    -4.117000000
H     1.003000000     6.205000000    -3.277000000
H     2.037000000     6.881000000    -4.151000000
