218
-1474.62487
C    -1.032000000     1.739000000     4.725000000
H    -0.236000000     1.028000000     4.930000000
C    -2.175000000     1.341000000     4.007000000
C    -3.142000000     2.303000000     3.699000000
H    -3.943000000     1.988000000     3.035000000
C    -2.433000000    -0.077000000     3.614000000
O    -1.885000000    -1.024000000     4.617000000
H    -1.904000000    -0.350000000     2.690000000
O    -3.825000000    -0.336000000     3.255000000
C    -4.106000000    -1.039000000     2.168000000
C    -4.656000000    -0.380000000     1.029000000
H    -4.899000000     0.674000000     1.137000000
C    -4.674000000    -1.019000000    -0.196000000
O    -4.993000000    -0.252000000    -1.316000000
C    -4.255000000    -2.325000000    -0.355000000
C    -4.334000000    -3.054000000    -1.654000000
H    -4.667000000    -4.088000000    -1.538000000
C    -3.095000000    -3.032000000    -2.453000000
C    -2.043000000    -3.941000000    -2.260000000
H    -2.153000000    -4.780000000    -1.577000000
H    -5.197000000    -2.579000000    -2.124000000
C    -3.766000000    -3.010000000     0.794000000
H    -3.591000000    -4.079000000     0.699000000
C    -3.647000000    -2.352000000     2.004000000
C    -3.074000000    -3.091000000     3.215000000
H    -3.326000000    -4.147000000     3.095000000
H    -3.646000000    -2.777000000     4.091000000
C    -1.586000000    -3.016000000     3.430000000
C    -0.811000000    -4.009000000     2.844000000
H    -1.343000000    -4.821000000     2.355000000
C    -1.047000000    -2.033000000     4.203000000
C     0.322000000    -1.961000000     4.290000000
H     0.742000000    -1.042000000     4.689000000
C     1.146000000    -2.872000000     3.693000000
O     2.441000000    -2.415000000     3.592000000
C     3.030000000    -1.959000000     2.312000000
C     4.044000000    -0.933000000     2.646000000
C     5.099000000    -0.698000000     1.701000000
H     5.121000000    -1.237000000     0.757000000
C     4.071000000    -0.134000000     3.754000000
H     3.237000000    -0.264000000     4.439000000
O     3.598000000    -3.119000000     1.593000000
H     2.355000000    -1.439000000     1.615000000
C     0.566000000    -3.931000000     2.978000000
C     1.407000000    -4.816000000     2.227000000
H     0.913000000    -5.789000000     2.192000000
H     2.290000000    -4.972000000     2.852000000
C     1.718000000    -4.323000000     0.816000000
C     0.989000000    -4.739000000    -0.235000000
H     0.120000000    -5.380000000    -0.105000000
C     2.844000000    -3.522000000     0.553000000
C     3.131000000    -3.037000000    -0.701000000
H     3.935000000    -2.307000000    -0.746000000
C     2.320000000    -3.412000000    -1.775000000
O     2.453000000    -2.695000000    -2.982000000
C     1.573000000    -1.636000000    -3.245000000
C     2.279000000    -0.417000000    -3.808000000
C     3.578000000    -0.135000000    -3.328000000
H     4.126000000    -0.814000000    -2.680000000
C     1.703000000     0.515000000    -4.679000000
H     0.694000000     0.368000000    -5.057000000
O     0.592000000    -2.142000000    -4.236000000
H     1.101000000    -1.391000000    -2.282000000
C     1.236000000    -4.257000000    -1.549000000
C     0.330000000    -4.682000000    -2.705000000
H     0.010000000    -5.667000000    -2.359000000
H     0.796000000    -4.963000000    -3.652000000
C    -0.846000000    -3.705000000    -2.956000000
C    -0.680000000    -2.547000000    -3.702000000
C    -1.739000000    -1.630000000    -3.861000000
H    -1.572000000    -0.660000000    -4.323000000
C    -2.969000000    -1.880000000    -3.283000000
O    -3.935000000    -0.945000000    -3.243000000
C    -3.909000000     0.003000000    -2.214000000
H    -2.942000000    -0.092000000    -1.697000000
C    -3.941000000     1.455000000    -2.797000000
C    -4.240000000     2.416000000    -1.901000000
H    -4.531000000     2.127000000    -0.894000000
C    -3.542000000     1.845000000    -4.117000000
H    -3.220000000     1.152000000    -4.890000000
C    -3.539000000     3.147000000    -4.507000000
O    -3.027000000     3.499000000    -5.793000000
C    -3.871000000     4.160000000    -3.568000000
H    -3.843000000     5.215000000    -3.826000000
C    -4.163000000     3.779000000    -2.282000000
O    -4.395000000     4.725000000    -1.358000000
C    -4.914000000     4.493000000    -0.087000000
C    -4.089000000     4.667000000     0.968000000
H    -3.052000000     4.987000000     0.920000000
C    -6.211000000     4.047000000     0.037000000
H    -6.867000000     3.982000000    -0.828000000
C    -6.674000000     3.619000000     1.271000000
H    -7.622000000     3.114000000     1.437000000
C    -5.824000000     3.706000000     2.419000000
H    -6.220000000     3.651000000     3.430000000
C    -4.562000000     4.308000000     2.252000000
O    -3.737000000     4.521000000     3.335000000
C    -2.888000000     3.606000000     3.915000000
C    -1.672000000     4.085000000     4.455000000
H    -1.546000000     5.157000000     4.588000000
C    -0.839000000     3.098000000     4.903000000
O     0.369000000     3.590000000     5.495000000
C     1.454000000     2.794000000     5.944000000
C     2.724000000     2.772000000     5.351000000
H     2.881000000     3.298000000     4.413000000
C     1.260000000     2.014000000     7.089000000
H     0.333000000     2.092000000     7.653000000
C     2.304000000     1.194000000     7.639000000
H     2.178000000     0.646000000     8.570000000
C     3.431000000     1.076000000     6.918000000
H     4.252000000     0.577000000     7.426000000
C     3.711000000     1.875000000     5.758000000
O     4.898000000     1.655000000     5.097000000
C     4.998000000     0.867000000     3.988000000
C     6.068000000     1.023000000     3.122000000
H     6.869000000     1.720000000     3.352000000
C     6.090000000     0.245000000     1.969000000
O     7.154000000     0.390000000     1.142000000
C     7.078000000     0.215000000    -0.246000000
C     6.265000000     1.014000000    -1.056000000
H     5.522000000     1.742000000    -0.740000000
C     7.958000000    -0.717000000    -0.757000000
H     8.735000000    -1.206000000    -0.175000000
C     7.954000000    -1.052000000    -2.092000000
H     8.574000000    -1.854000000    -2.484000000
C     7.103000000    -0.284000000    -2.945000000
H     7.072000000    -0.504000000    -4.009000000
C     6.265000000     0.718000000    -2.408000000
O     5.453000000     1.420000000    -3.247000000
C     4.172000000     1.084000000    -3.689000000
C     3.585000000     1.999000000    -4.538000000
H     4.023000000     2.954000000    -4.815000000
C     2.314000000     1.765000000    -4.995000000
O     1.660000000     2.768000000    -5.666000000
C     0.480000000     2.591000000    -6.282000000
C     0.422000000     2.005000000    -7.520000000
H     1.230000000     1.445000000    -7.983000000
C    -0.821000000     1.936000000    -8.134000000
H    -0.846000000     1.486000000    -9.123000000
C    -2.001000000     2.408000000    -7.577000000
H    -2.865000000     2.483000000    -8.232000000
C    -1.901000000     2.948000000    -6.321000000
C    -0.681000000     3.029000000    -5.699000000
H    -0.504000000     3.452000000    -4.714000000
C     1.576000000     2.126000000     0.685000000
H     2.152000000     2.757000000     1.358000000
C     0.975000000     0.947000000     1.093000000
H     1.279000000     0.597000000     2.076000000
C     0.171000000     0.211000000     0.218000000
C    -0.202000000    -1.178000000     0.621000000
H     0.306000000    -1.818000000    -0.103000000
H     0.072000000    -1.515000000     1.623000000
H    -1.279000000    -1.357000000     0.617000000
C    -0.097000000     0.677000000    -1.037000000
H    -0.773000000     0.041000000    -1.603000000
C     0.547000000     1.872000000    -1.469000000
H     0.475000000     2.242000000    -2.489000000
C     1.490000000     2.496000000    -0.633000000
C     2.154000000     3.815000000    -1.087000000
O     1.791000000     4.391000000    -2.094000000
O     2.920000000     4.329000000    -0.302000000
O     7.121000000     5.521000000     0.203000000
H     6.187000000     5.611000000     0.015000000
H     7.418000000     6.415000000     0.374000000
O     0.574000000     8.910000000    -2.631000000
H     1.047000000     9.395000000    -3.308000000
H     1.218000000     8.291000000    -2.287000000
O     1.425000000     5.525000000    -4.810000000
H     1.118000000     5.463000000    -3.906000000
H     1.986000000     4.758000000    -4.926000000
O     1.149000000     5.989000000     3.847000000
H     0.401000000     6.236000000     3.303000000
H     1.075000000     5.039000000     3.939000000
O    -2.000000000     6.681000000    -4.211000000
H    -1.721000000     6.198000000    -3.434000000
H    -1.249000000     6.638000000    -4.803000000
O    -0.799000000     5.087000000    -2.384000000
H     0.135000000     4.954000000    -2.225000000
H    -1.180000000     5.177000000    -1.510000000
O     0.525000000     8.939000000     2.499000000
H     0.112000000     8.076000000     2.540000000
H     0.309000000     9.267000000     1.626000000
O     6.892000000     3.526000000    -4.659000000
H     6.893000000     2.679000000    -5.104000000
H     7.440000000     3.392000000    -3.886000000
O    -1.754000000     7.330000000    -0.374000000
H    -0.952000000     7.285000000    -0.894000000
H    -2.140000000     8.175000000    -0.603000000
O     5.023000000     4.091000000    -2.125000000
H     4.753000000     3.230000000    -2.442000000
H     4.347000000     4.336000000    -1.493000000
O     2.141000000     6.977000000    -1.722000000
H     2.667000000     7.215000000    -0.958000000
H     2.081000000     6.023000000    -1.683000000
O    -0.335000000     6.152000000    -6.760000000
H    -0.319000000     7.013000000    -7.179000000
H     0.268000000     6.234000000    -6.021000000
O     4.776000000     6.656000000    -3.406000000
H     5.207000000     5.901000000    -3.007000000
H     3.944000000     6.732000000    -2.938000000
O     5.201000000     5.259000000    -5.827000000
H     5.808000000     4.845000000    -5.214000000
H     4.837000000     5.999000000    -5.341000000
O     2.478000000     7.844000000    -6.206000000
H     2.370000000     6.982000000    -5.804000000
H     1.990000000     7.787000000    -7.028000000
O     7.730000000     3.655000000    -1.914000000
H     6.805000000     3.787000000    -2.118000000
H     7.857000000     4.099000000    -1.076000000
O     3.569000000     6.944000000     3.014000000
H     4.212000000     6.661000000     3.664000000
H     2.725000000     6.684000000     3.382000000
O    -0.813000000     6.436000000     2.066000000
H    -1.619000000     6.592000000     2.558000000
H    -0.992000000     6.788000000     1.194000000
O     4.133000000     6.561000000     0.243000000
H     3.930000000     6.930000000     1.103000000
H     3.647000000     5.737000000     0.214000000
