218
-1450.40637
C    -4.999000000     0.470000000    -0.979000000
H    -4.975000000     0.609000000    -2.057000000
C    -4.251000000     1.247000000    -0.106000000
C    -4.427000000     1.028000000     1.265000000
H    -3.803000000     1.652000000     1.900000000
C    -3.250000000     2.258000000    -0.628000000
O    -3.435000000     2.617000000    -1.961000000
H    -2.247000000     1.813000000    -0.544000000
O    -3.149000000     3.434000000     0.169000000
C    -1.935000000     3.921000000     0.542000000
C    -1.499000000     3.678000000     1.853000000
H    -2.172000000     3.174000000     2.541000000
C    -0.282000000     4.069000000     2.239000000
O     0.112000000     3.794000000     3.509000000
C     0.608000000     4.734000000     1.368000000
C     1.994000000     5.106000000     1.778000000
H     2.310000000     5.969000000     1.188000000
C     2.927000000     3.825000000     1.581000000
C     3.583000000     3.711000000     0.363000000
H     3.591000000     4.506000000    -0.379000000
H     1.987000000     5.489000000     2.801000000
C     0.170000000     4.981000000     0.036000000
H     0.829000000     5.498000000    -0.657000000
C    -1.156000000     4.566000000    -0.344000000
C    -1.618000000     4.814000000    -1.772000000
H    -0.944000000     5.581000000    -2.159000000
H    -2.604000000     5.282000000    -1.758000000
C    -1.452000000     3.632000000    -2.724000000
C    -0.321000000     3.526000000    -3.536000000
H     0.382000000     4.354000000    -3.492000000
C    -2.349000000     2.546000000    -2.789000000
C    -2.125000000     1.396000000    -3.524000000
H    -2.882000000     0.623000000    -3.423000000
C    -0.982000000     1.370000000    -4.341000000
O    -0.712000000     0.284000000    -5.109000000
C     0.126000000    -0.720000000    -4.584000000
C    -0.488000000    -2.087000000    -4.760000000
C     0.267000000    -3.238000000    -4.663000000
H     1.341000000    -3.116000000    -4.549000000
C    -1.883000000    -2.251000000    -4.808000000
H    -2.562000000    -1.405000000    -4.869000000
O     1.477000000    -0.627000000    -5.029000000
H     0.059000000    -0.642000000    -3.489000000
C    -0.046000000     2.447000000    -4.370000000
C     1.275000000     2.332000000    -5.034000000
H     1.718000000     3.328000000    -5.103000000
H     1.099000000     1.974000000    -6.051000000
C     2.330000000     1.484000000    -4.292000000
C     3.198000000     2.245000000    -3.480000000
H     3.098000000     3.326000000    -3.534000000
C     2.355000000     0.089000000    -4.259000000
C     3.191000000    -0.627000000    -3.349000000
H     3.230000000    -1.711000000    -3.415000000
C     4.033000000     0.161000000    -2.441000000
O     4.694000000    -0.579000000    -1.441000000
C     4.145000000    -0.581000000    -0.084000000
C     4.159000000    -1.983000000     0.521000000
C     3.824000000    -3.093000000    -0.324000000
H     3.479000000    -2.920000000    -1.341000000
C     4.252000000    -2.262000000     1.903000000
H     4.468000000    -1.532000000     2.679000000
O     4.921000000     0.303000000     0.657000000
H     3.080000000    -0.305000000    -0.104000000
C     3.948000000     1.560000000    -2.472000000
C     4.769000000     2.402000000    -1.475000000
H     4.888000000     3.414000000    -1.868000000
H     5.772000000     1.975000000    -1.432000000
C     4.185000000     2.530000000    -0.050000000
C     4.364000000     1.537000000     0.926000000
C     3.709000000     1.636000000     2.232000000
H     3.817000000     0.856000000     2.982000000
C     2.973000000     2.765000000     2.503000000
O     2.176000000     2.734000000     3.663000000
C     0.746000000     2.506000000     3.620000000
H     0.504000000     1.960000000     2.696000000
C     0.272000000     1.690000000     4.839000000
C    -1.020000000     1.870000000     5.288000000
H    -1.648000000     2.629000000     4.828000000
C     1.141000000     0.696000000     5.344000000
H     2.177000000     0.548000000     5.050000000
C     0.612000000    -0.119000000     6.345000000
O     1.394000000    -1.125000000     6.893000000
C    -0.666000000     0.066000000     6.794000000
H    -1.049000000    -0.419000000     7.688000000
C    -1.455000000     1.121000000     6.344000000
O    -2.764000000     1.139000000     6.824000000
C    -3.920000000     1.220000000     6.035000000
C    -3.998000000     0.405000000     4.878000000
H    -3.203000000    -0.287000000     4.610000000
C    -4.933000000     2.156000000     6.263000000
H    -4.967000000     2.764000000     7.163000000
C    -6.139000000     2.149000000     5.537000000
H    -6.991000000     2.730000000     5.880000000
C    -6.250000000     1.277000000     4.481000000
H    -7.216000000     1.315000000     3.985000000
C    -5.204000000     0.411000000     4.127000000
O    -5.404000000    -0.462000000     3.086000000
C    -5.232000000    -0.009000000     1.760000000
C    -5.815000000    -0.884000000     0.833000000
H    -6.240000000    -1.827000000     1.167000000
C    -5.818000000    -0.539000000    -0.508000000
O    -6.563000000    -1.336000000    -1.355000000
C    -6.166000000    -1.691000000    -2.668000000
C    -5.069000000    -2.541000000    -2.893000000
H    -4.716000000    -3.179000000    -2.087000000
C    -6.736000000    -0.917000000    -3.723000000
H    -7.484000000    -0.161000000    -3.499000000
C    -6.236000000    -1.044000000    -5.036000000
H    -6.562000000    -0.360000000    -5.816000000
C    -5.266000000    -2.017000000    -5.349000000
H    -4.936000000    -2.104000000    -6.382000000
C    -4.692000000    -2.741000000    -4.216000000
O    -3.829000000    -3.736000000    -4.543000000
C    -2.458000000    -3.544000000    -4.703000000
C    -1.646000000    -4.682000000    -4.613000000
H    -1.982000000    -5.715000000    -4.580000000
C    -0.277000000    -4.499000000    -4.658000000
O     0.568000000    -5.604000000    -4.551000000
C     1.841000000    -5.572000000    -4.017000000
C     1.889000000    -5.512000000    -2.590000000
H     1.012000000    -5.426000000    -1.954000000
C     2.987000000    -5.688000000    -4.817000000
H     2.989000000    -5.861000000    -5.890000000
C     4.267000000    -5.685000000    -4.123000000
H     5.130000000    -5.836000000    -4.766000000
C     4.285000000    -5.472000000    -2.740000000
H     5.234000000    -5.485000000    -2.210000000
C     3.126000000    -5.420000000    -1.993000000
O     3.177000000    -5.458000000    -0.540000000
C     3.533000000    -4.338000000     0.165000000
C     3.764000000    -4.557000000     1.492000000
H     3.665000000    -5.526000000     1.975000000
C     3.927000000    -3.548000000     2.367000000
O     3.890000000    -3.792000000     3.700000000
C     3.813000000    -2.870000000     4.699000000
C     4.990000000    -2.372000000     5.221000000
H     5.918000000    -2.569000000     4.690000000
C     5.036000000    -1.517000000     6.324000000
H     5.991000000    -1.091000000     6.618000000
C     3.766000000    -1.110000000     6.850000000
H     3.734000000    -0.542000000     7.777000000
C     2.546000000    -1.583000000     6.311000000
C     2.591000000    -2.427000000     5.201000000
H     1.623000000    -2.811000000     4.888000000
C    -2.101000000    -1.941000000     1.661000000
H    -2.664000000    -1.892000000     2.589000000
C    -1.130000000    -0.964000000     1.383000000
H    -0.892000000    -0.157000000     2.072000000
C    -0.538000000    -0.922000000     0.159000000
C     0.436000000     0.136000000    -0.046000000
H     1.038000000     0.281000000     0.854000000
H     1.071000000    -0.053000000    -0.914000000
H    -0.112000000     1.045000000    -0.299000000
C    -0.813000000    -1.878000000    -0.768000000
H    -0.451000000    -1.803000000    -1.790000000
C    -1.657000000    -2.932000000    -0.494000000
H    -1.875000000    -3.730000000    -1.199000000
C    -2.296000000    -3.031000000     0.743000000
C    -3.139000000    -4.202000000     1.061000000
O    -3.269000000    -5.103000000     0.299000000
O    -3.671000000    -4.193000000     2.131000000
O     0.881000000    -6.618000000     5.464000000
H     1.837000000    -6.573000000     5.468000000
H     0.607000000    -5.838000000     4.981000000
O    -6.143000000    -5.491000000     1.635000000
H    -6.667000000    -4.710000000     1.455000000
H    -5.241000000    -5.173000000     1.661000000
O    -8.088000000    -6.955000000     2.931000000
H    -7.726000000    -6.845000000     3.811000000
H    -7.360000000    -6.752000000     2.345000000
O     0.534000000    -3.641000000     1.732000000
H    -0.126000000    -3.283000000     1.138000000
H     1.337000000    -3.172000000     1.509000000
O    -5.515000000    -5.712000000     7.049000000
H    -5.936000000    -4.859000000     7.153000000
H    -4.689000000    -5.520000000     6.606000000
O    -4.235000000    -6.662000000    -3.587000000
H    -4.379000000    -5.930000000    -4.187000000
H    -4.697000000    -6.411000000    -2.787000000
O    -5.207000000    -8.563000000    -0.664000000
H    -4.751000000    -8.652000000     0.173000000
H    -5.050000000    -7.656000000    -0.927000000
O    -8.305000000    -3.703000000     1.381000000
H    -9.199000000    -4.038000000     1.445000000
H    -8.367000000    -2.795000000     1.676000000
O    -1.803000000    -6.889000000    -1.150000000
H    -2.293000000    -6.194000000    -0.711000000
H    -2.414000000    -7.242000000    -1.796000000
O    -5.205000000    -5.958000000    -1.166000000
H    -6.031000000    -5.713000000    -0.750000000
H    -4.532000000    -5.689000000    -0.541000000
O     0.070000000    -6.295000000     0.900000000
H     0.112000000    -5.362000000     1.108000000
H    -0.707000000    -6.383000000     0.348000000
O     0.787000000    -8.523000000     2.338000000
H     0.636000000    -7.666000000     1.939000000
H     0.012000000    -9.035000000     2.106000000
O    -2.957000000    -3.107000000     7.382000000
H    -3.283000000    -3.079000000     6.483000000
H    -3.441000000    -2.415000000     7.834000000
O    -2.686000000    -6.745000000     3.047000000
H    -1.904000000    -6.358000000     3.439000000
H    -3.235000000    -5.995000000     2.818000000
O    -3.862000000    -8.800000000     1.939000000
H    -4.720000000    -8.739000000     2.358000000
H    -3.343000000    -8.112000000     2.355000000
O    -7.917000000    -5.209000000    -0.757000000
H    -8.052000000    -4.601000000    -0.031000000
H    -8.544000000    -4.931000000    -1.424000000
O    -4.407000000    -3.832000000     4.762000000
H    -5.157000000    -3.239000000     4.718000000
H    -4.266000000    -4.108000000     3.856000000
O    -0.422000000    -4.491000000     4.173000000
H    -0.207000000    -4.094000000     3.328000000
H    -0.576000000    -3.746000000     4.754000000
O    -1.775000000    -6.561000000     6.421000000
H    -1.081000000    -7.005000000     5.934000000
H    -2.000000000    -5.803000000     5.881000000
