218
-1478.09239
C    -1.960000000     1.144000000     4.513000000
H    -1.340000000     0.400000000     5.007000000
C    -2.765000000     0.710000000     3.486000000
C    -3.584000000     1.598000000     2.808000000
H    -4.222000000     1.284000000     1.987000000
C    -2.680000000    -0.647000000     2.973000000
O    -2.178000000    -1.584000000     3.960000000
H    -1.922000000    -0.676000000     2.176000000
O    -3.907000000    -1.134000000     2.443000000
C    -3.775000000    -1.827000000     1.230000000
C    -4.255000000    -1.168000000     0.098000000
H    -4.605000000    -0.140000000     0.140000000
C    -4.163000000    -1.810000000    -1.152000000
O    -4.468000000    -1.048000000    -2.232000000
C    -3.494000000    -3.025000000    -1.241000000
C    -3.194000000    -3.733000000    -2.574000000
H    -3.239000000    -4.822000000    -2.498000000
C    -1.857000000    -3.348000000    -3.101000000
C    -0.664000000    -4.071000000    -2.819000000
H    -0.826000000    -5.074000000    -2.432000000
H    -3.959000000    -3.487000000    -3.313000000
C    -3.114000000    -3.771000000    -0.087000000
H    -2.706000000    -4.777000000    -0.150000000
C    -3.314000000    -3.154000000     1.158000000
C    -2.947000000    -3.959000000     2.418000000
H    -3.212000000    -5.009000000     2.277000000
H    -3.581000000    -3.553000000     3.210000000
C    -1.544000000    -3.638000000     2.923000000
C    -0.419000000    -4.384000000     2.411000000
H    -0.674000000    -5.204000000     1.745000000
C    -1.256000000    -2.455000000     3.602000000
C     0.033000000    -2.146000000     3.925000000
H     0.151000000    -1.354000000     4.660000000
C     1.082000000    -2.900000000     3.422000000
O     2.392000000    -2.519000000     3.649000000
C     3.077000000    -1.731000000     2.691000000
C     3.793000000    -0.611000000     3.397000000
C     4.779000000     0.087000000     2.676000000
H     5.035000000    -0.258000000     1.677000000
C     3.386000000    -0.131000000     4.644000000
H     2.604000000    -0.655000000     5.188000000
O     3.877000000    -2.624000000     1.950000000
H     2.392000000    -1.272000000     1.963000000
C     0.876000000    -3.970000000     2.570000000
C     1.966000000    -4.774000000     1.989000000
H     1.515000000    -5.732000000     1.721000000
H     2.795000000    -4.870000000     2.693000000
C     2.559000000    -4.144000000     0.725000000
C     1.986000000    -4.542000000    -0.478000000
H     1.214000000    -5.307000000    -0.495000000
C     3.481000000    -3.168000000     0.729000000
C     3.916000000    -2.541000000    -0.417000000
H     4.658000000    -1.749000000    -0.350000000
C     3.290000000    -2.870000000    -1.615000000
O     3.618000000    -2.057000000    -2.718000000
C     2.534000000    -1.174000000    -3.174000000
C     3.076000000     0.230000000    -3.532000000
C     4.057000000     0.876000000    -2.752000000
H     4.536000000     0.323000000    -1.948000000
C     2.458000000     0.941000000    -4.570000000
H     1.644000000     0.547000000    -5.174000000
O     1.788000000    -1.769000000    -4.256000000
H     1.797000000    -1.078000000    -2.362000000
C     2.347000000    -3.918000000    -1.686000000
C     1.748000000    -4.416000000    -3.005000000
H     1.434000000    -5.438000000    -2.783000000
H     2.448000000    -4.562000000    -3.830000000
C     0.547000000    -3.578000000    -3.274000000
C     0.610000000    -2.325000000    -3.924000000
C    -0.541000000    -1.634000000    -4.193000000
H    -0.546000000    -0.693000000    -4.737000000
C    -1.774000000    -2.053000000    -3.729000000
O    -2.921000000    -1.198000000    -4.049000000
C    -3.428000000    -0.350000000    -2.980000000
H    -2.642000000    -0.221000000    -2.220000000
C    -3.681000000     1.123000000    -3.307000000
C    -4.605000000     1.847000000    -2.510000000
H    -5.206000000     1.398000000    -1.724000000
C    -2.955000000     1.814000000    -4.299000000
H    -2.143000000     1.336000000    -4.841000000
C    -3.145000000     3.169000000    -4.502000000
O    -2.408000000     3.910000000    -5.376000000
C    -4.149000000     3.795000000    -3.833000000
H    -4.293000000     4.853000000    -4.041000000
C    -4.815000000     3.192000000    -2.776000000
O    -5.756000000     3.964000000    -2.125000000
C    -6.032000000     3.696000000    -0.799000000
C    -5.056000000     3.937000000     0.182000000
H    -4.077000000     4.358000000    -0.033000000
C    -7.304000000     3.243000000    -0.411000000
H    -8.047000000     2.927000000    -1.138000000
C    -7.554000000     3.049000000     0.963000000
H    -8.478000000     2.543000000     1.233000000
C    -6.545000000     3.246000000     1.943000000
H    -6.700000000     2.910000000     2.965000000
C    -5.278000000     3.648000000     1.543000000
O    -4.359000000     3.927000000     2.522000000
C    -3.697000000     2.927000000     3.276000000
C    -2.793000000     3.381000000     4.238000000
H    -2.706000000     4.449000000     4.421000000
C    -1.920000000     2.492000000     4.860000000
O    -1.058000000     2.971000000     5.814000000
C    -0.106000000     2.220000000     6.490000000
C     1.218000000     2.290000000     6.075000000
H     1.519000000     2.917000000     5.240000000
C    -0.434000000     1.427000000     7.593000000
H    -1.456000000     1.477000000     7.961000000
C     0.564000000     0.699000000     8.210000000
H     0.354000000     0.123000000     9.107000000
C     1.943000000     0.804000000     7.812000000
H     2.690000000     0.177000000     8.292000000
C     2.244000000     1.584000000     6.669000000
O     3.542000000     1.663000000     6.208000000
C     4.004000000     1.050000000     5.116000000
C     5.032000000     1.639000000     4.468000000
H     5.469000000     2.482000000     4.997000000
C     5.431000000     1.218000000     3.164000000
O     6.435000000     1.943000000     2.517000000
C     6.686000000     1.787000000     1.130000000
C     5.945000000     2.491000000     0.170000000
H     5.212000000     3.238000000     0.465000000
C     7.438000000     0.713000000     0.647000000
H     7.970000000     0.174000000     1.426000000
C     7.560000000     0.450000000    -0.699000000
H     8.266000000    -0.340000000    -0.944000000
C     7.020000000     1.282000000    -1.670000000
H     7.241000000     1.060000000    -2.710000000
C     6.086000000     2.231000000    -1.220000000
O     5.255000000     2.845000000    -2.117000000
C     4.389000000     2.207000000    -2.988000000
C     3.811000000     2.881000000    -4.050000000
H     4.003000000     3.951000000    -4.092000000
C     2.841000000     2.294000000    -4.815000000
O     2.344000000     3.005000000    -5.826000000
C     1.028000000     2.900000000    -6.259000000
C     0.748000000     2.296000000    -7.483000000
H     1.557000000     1.896000000    -8.089000000
C    -0.544000000     2.193000000    -8.000000000
H    -0.781000000     1.794000000    -8.982000000
C    -1.588000000     2.789000000    -7.248000000
H    -2.580000000     2.798000000    -7.692000000
C    -1.355000000     3.340000000    -5.992000000
C    -0.068000000     3.466000000    -5.519000000
H     0.051000000     4.082000000    -4.632000000
C     1.627000000     1.831000000     1.611000000
H     2.026000000     2.106000000     2.584000000
C     0.841000000     0.678000000     1.421000000
H     0.552000000     0.050000000     2.259000000
C     0.392000000     0.377000000     0.126000000
C    -0.597000000    -0.754000000    -0.191000000
H    -1.512000000    -0.313000000    -0.593000000
H    -0.131000000    -1.346000000    -0.981000000
H    -0.744000000    -1.449000000     0.638000000
C     0.642000000     1.240000000    -0.938000000
H     0.167000000     1.102000000    -1.906000000
C     1.510000000     2.332000000    -0.739000000
H     1.812000000     2.911000000    -1.608000000
C     2.062000000     2.589000000     0.523000000
C     2.846000000     3.850000000     0.698000000
O     3.033000000     4.661000000    -0.244000000
O     3.239000000     4.192000000     1.815000000
O     1.533000000     5.687000000     4.995000000
H     2.185000000     6.246000000     5.419000000
H     0.734000000     5.824000000     5.504000000
O     0.474000000     4.648000000     2.869000000
H     1.277000000     4.516000000     2.366000000
H     0.766000000     5.058000000     3.683000000
O     6.750000000     7.911000000    -1.501000000
H     6.072000000     8.538000000    -1.249000000
H     6.485000000     7.091000000    -1.085000000
O     6.899000000     4.514000000    -3.771000000
H     7.578000000     4.798000000    -3.159000000
H     6.091000000     4.535000000    -3.259000000
O     3.285000000     8.289000000     1.046000000
H     2.494000000     8.593000000     1.490000000
H     3.633000000     7.605000000     1.618000000
O     5.087000000     5.549000000     6.092000000
H     4.899000000     5.284000000     5.192000000
H     5.241000000     6.493000000     6.037000000
O     0.048000000     8.380000000    -0.884000000
H    -0.695000000     8.442000000    -1.486000000
H     0.449000000     7.535000000    -1.085000000
O    -1.577000000     4.454000000    -2.099000000
H    -1.742000000     3.572000000    -2.433000000
H    -1.434000000     4.332000000    -1.161000000
O     4.505000000     9.609000000    -0.997000000
H     4.073000000     9.255000000    -0.219000000
H     3.791000000     9.962000000    -1.528000000
O     3.263000000     6.567000000     3.058000000
H     3.207000000     5.727000000     2.603000000
H     2.818000000     6.417000000     3.892000000
O     0.993000000     7.141000000    -4.014000000
H     1.490000000     6.859000000    -3.247000000
H     0.284000000     7.677000000    -3.657000000
O     5.485000000     4.470000000     2.972000000
H     4.664000000     4.529000000     2.483000000
H     5.864000000     3.634000000     2.704000000
O     8.536000000     5.133000000     2.643000000
H     7.580000000     5.153000000     2.672000000
H     8.805000000     5.175000000     3.561000000
O     0.366000000     9.370000000     1.588000000
H    -0.319000000     8.904000000     2.067000000
H     0.333000000     9.002000000     0.705000000
O     5.225000000     5.637000000    -1.252000000
H     5.619000000     4.766000000    -1.205000000
H     4.333000000     5.513000000    -0.928000000
O     2.129000000     6.664000000    -1.663000000
H     2.338000000     5.792000000    -1.328000000
H     2.411000000     7.260000000    -0.970000000
O    -1.191000000     7.158000000     2.472000000
H    -1.552000000     7.065000000     3.353000000
H    -0.664000000     6.370000000     2.343000000
O    -1.148000000     3.785000000     0.526000000
H    -0.978000000     4.339000000     1.287000000
H    -0.736000000     2.948000000     0.742000000
O     1.444000000     9.431000000     4.593000000
H     1.061000000     8.916000000     3.883000000
H     0.691000000     9.797000000     5.057000000
