218
-1470.86887
C    -1.560000000     1.691000000     4.721000000
H    -0.801000000     1.093000000     5.219000000
C    -2.501000000     1.041000000     3.823000000
C    -3.476000000     1.863000000     3.237000000
H    -4.193000000     1.395000000     2.567000000
C    -2.382000000    -0.399000000     3.465000000
O    -1.624000000    -1.125000000     4.487000000
H    -1.832000000    -0.481000000     2.516000000
O    -3.686000000    -1.034000000     3.335000000
C    -3.821000000    -1.787000000     2.243000000
C    -4.340000000    -1.129000000     1.104000000
H    -4.698000000    -0.118000000     1.283000000
C    -4.242000000    -1.765000000    -0.170000000
O    -4.492000000    -1.009000000    -1.278000000
C    -3.738000000    -3.058000000    -0.274000000
C    -3.600000000    -3.776000000    -1.627000000
H    -3.487000000    -4.828000000    -1.356000000
C    -2.311000000    -3.414000000    -2.297000000
C    -1.127000000    -4.136000000    -2.061000000
H    -1.130000000    -4.805000000    -1.205000000
H    -4.403000000    -3.645000000    -2.356000000
C    -3.172000000    -3.700000000     0.895000000
H    -2.709000000    -4.683000000     0.853000000
C    -3.210000000    -3.041000000     2.147000000
C    -2.536000000    -3.744000000     3.349000000
H    -2.644000000    -4.830000000     3.302000000
H    -3.163000000    -3.459000000     4.196000000
C    -1.070000000    -3.277000000     3.567000000
C    -0.074000000    -4.084000000     3.016000000
H    -0.278000000    -4.935000000     2.370000000
C    -0.754000000    -2.056000000     4.160000000
C     0.597000000    -1.646000000     4.311000000
H     0.770000000    -0.669000000     4.755000000
C     1.594000000    -2.449000000     3.779000000
O     2.828000000    -1.842000000     3.713000000
C     3.329000000    -1.270000000     2.429000000
C     3.994000000     0.116000000     2.595000000
C     5.015000000     0.568000000     1.784000000
H     5.323000000    -0.145000000     1.023000000
C     3.536000000     1.014000000     3.537000000
H     2.804000000     0.658000000     4.258000000
O     4.145000000    -2.219000000     1.788000000
H     2.467000000    -1.146000000     1.757000000
C     1.286000000    -3.626000000     3.092000000
C     2.415000000    -4.425000000     2.477000000
H     2.274000000    -5.507000000     2.503000000
H     3.279000000    -4.261000000     3.124000000
C     2.645000000    -3.957000000     1.064000000
C     1.912000000    -4.486000000     0.000000000
H     1.308000000    -5.325000000     0.337000000
C     3.494000000    -2.908000000     0.787000000
C     3.731000000    -2.498000000    -0.507000000
H     4.393000000    -1.645000000    -0.634000000
C     3.039000000    -3.085000000    -1.546000000
O     3.183000000    -2.397000000    -2.701000000
C     2.097000000    -1.620000000    -3.208000000
C     2.528000000    -0.350000000    -3.824000000
C     3.536000000     0.380000000    -3.209000000
H     4.029000000     0.004000000    -2.317000000
C     1.850000000     0.194000000    -4.940000000
H     1.103000000    -0.363000000    -5.499000000
O     1.306000000    -2.386000000    -4.159000000
H     1.518000000    -1.344000000    -2.314000000
C     2.119000000    -4.080000000    -1.339000000
C     1.360000000    -4.708000000    -2.478000000
H     1.061000000    -5.733000000    -2.248000000
H     1.951000000    -4.791000000    -3.393000000
C     0.123000000    -3.910000000    -2.771000000
C     0.148000000    -2.846000000    -3.612000000
C    -1.033000000    -2.171000000    -3.911000000
H    -0.888000000    -1.385000000    -4.648000000
C    -2.262000000    -2.362000000    -3.249000000
O    -3.319000000    -1.500000000    -3.335000000
C    -3.400000000    -0.582000000    -2.225000000
H    -2.461000000    -0.445000000    -1.669000000
C    -3.756000000     0.796000000    -2.710000000
C    -4.378000000     1.735000000    -1.898000000
H    -4.575000000     1.393000000    -0.886000000
C    -3.233000000     1.149000000    -3.980000000
H    -2.679000000     0.444000000    -4.594000000
C    -3.524000000     2.441000000    -4.454000000
O    -3.085000000     2.955000000    -5.638000000
C    -4.228000000     3.369000000    -3.641000000
H    -4.508000000     4.337000000    -4.047000000
C    -4.620000000     3.070000000    -2.372000000
O    -5.277000000     3.965000000    -1.627000000
C    -5.782000000     3.732000000    -0.394000000
C    -5.050000000     4.198000000     0.717000000
H    -4.177000000     4.831000000     0.583000000
C    -6.898000000     2.923000000    -0.263000000
H    -7.547000000     2.598000000    -1.073000000
C    -7.233000000     2.516000000     1.032000000
H    -8.077000000     1.850000000     1.191000000
C    -6.570000000     2.977000000     2.121000000
H    -6.879000000     2.665000000     3.115000000
C    -5.389000000     3.751000000     1.964000000
O    -4.614000000     4.020000000     3.046000000
C    -3.607000000     3.208000000     3.618000000
C    -2.687000000     3.794000000     4.452000000
H    -2.876000000     4.857000000     4.586000000
C    -1.696000000     3.052000000     5.082000000
O    -0.730000000     3.569000000     5.937000000
C     0.490000000     3.056000000     6.247000000
C     1.586000000     3.355000000     5.445000000
H     1.540000000     3.995000000     4.568000000
C     0.622000000     2.276000000     7.377000000
H    -0.277000000     2.262000000     7.988000000
C     1.831000000     1.656000000     7.690000000
H     1.966000000     1.151000000     8.642000000
C     2.939000000     1.911000000     6.890000000
H     3.924000000     1.551000000     7.175000000
C     2.816000000     2.700000000     5.747000000
O     3.874000000     2.917000000     4.902000000
C     4.099000000     2.248000000     3.747000000
C     5.194000000     2.599000000     2.918000000
H     5.725000000     3.531000000     3.097000000
C     5.670000000     1.791000000     1.926000000
O     6.729000000     2.106000000     1.068000000
C     6.770000000     1.668000000    -0.211000000
C     5.948000000     2.351000000    -1.115000000
H     5.293000000     3.161000000    -0.806000000
C     7.608000000     0.680000000    -0.603000000
H     8.111000000     0.050000000     0.125000000
C     7.668000000     0.297000000    -1.932000000
H     8.281000000    -0.577000000    -2.141000000
C     6.751000000     0.949000000    -2.832000000
H     6.670000000     0.576000000    -3.850000000
C     5.924000000     1.976000000    -2.432000000
O     4.896000000     2.451000000    -3.236000000
C     3.870000000     1.643000000    -3.741000000
C     3.259000000     2.156000000    -4.862000000
H     3.471000000     3.178000000    -5.165000000
C     2.264000000     1.391000000    -5.436000000
O     1.591000000     2.091000000    -6.437000000
C     0.280000000     1.938000000    -6.753000000
C    -0.071000000     1.342000000    -7.949000000
H     0.739000000     0.975000000    -8.573000000
C    -1.406000000     1.135000000    -8.258000000
H    -1.609000000     0.415000000    -9.046000000
C    -2.400000000     1.710000000    -7.494000000
H    -3.431000000     1.559000000    -7.801000000
C    -2.078000000     2.417000000    -6.374000000
C    -0.701000000     2.524000000    -5.974000000
H    -0.436000000     3.052000000    -5.061000000
C    -0.070000000     2.578000000     0.925000000
H    -0.755000000     3.379000000     1.191000000
C    -0.511000000     1.316000000     0.829000000
H    -1.551000000     1.055000000     1.007000000
C     0.366000000     0.335000000     0.328000000
C    -0.182000000    -1.106000000     0.167000000
H     0.520000000    -1.743000000     0.710000000
H    -1.199000000    -1.198000000     0.553000000
H    -0.276000000    -1.473000000    -0.857000000
C     1.662000000     0.672000000    -0.122000000
H     2.319000000    -0.093000000    -0.526000000
C     2.094000000     1.980000000    -0.026000000
H     3.117000000     2.140000000    -0.356000000
C     1.229000000     2.977000000     0.578000000
C     1.708000000     4.418000000     0.532000000
O     2.891000000     4.650000000     0.307000000
O     0.932000000     5.354000000     0.750000000
O    -1.359000000     8.661000000    -0.228000000
H    -1.790000000     7.825000000    -0.046000000
H    -0.574000000     8.423000000    -0.722000000
O    -1.689000000     5.878000000     0.595000000
H    -0.943000000     5.531000000     1.085000000
H    -1.372000000     5.948000000    -0.305000000
O     3.735000000     6.515000000    -5.068000000
H     4.568000000     6.985000000    -5.032000000
H     3.724000000     5.986000000    -4.270000000
O     2.331000000     9.896000000     2.458000000
H     3.152000000    10.388000000     2.433000000
H     1.683000000    10.491000000     2.082000000
O     5.046000000     8.877000000     0.321000000
H     5.044000000     7.963000000     0.608000000
H     5.858000000     9.238000000     0.678000000
O    -3.345000000     7.559000000     3.378000000
H    -2.572000000     8.063000000     3.632000000
H    -3.057000000     7.040000000     2.627000000
O     3.738000000     6.480000000     4.603000000
H     2.998000000     6.403000000     4.000000000
H     3.342000000     6.735000000     5.436000000
O     2.100000000     7.521000000    -0.605000000
H     1.384000000     7.319000000    -1.207000000
H     2.341000000     6.676000000    -0.227000000
O     0.669000000     4.674000000    -3.615000000
H     1.549000000     4.627000000    -3.241000000
H     0.205000000     3.930000000    -3.229000000
O     1.659000000     7.148000000     2.618000000
H     1.447000000     6.794000000     1.754000000
H     2.100000000     7.978000000     2.435000000
O     2.641000000    10.226000000    -0.376000000
H     3.149000000     9.415000000    -0.407000000
H     1.940000000    10.045000000     0.251000000
O     5.152000000     6.212000000     0.887000000
H     5.828000000     5.582000000     1.136000000
H     4.358000000     5.687000000     0.789000000
O     7.312000000     4.953000000     1.058000000
H     7.891000000     4.191000000     1.059000000
H     7.875000000     5.682000000     1.320000000
O     6.141000000     6.533000000    -1.526000000
H     5.475000000     6.317000000    -0.872000000
H     6.803000000     5.849000000    -1.427000000
O     3.205000000     5.051000000    -2.587000000
H     3.607000000     4.183000000    -2.586000000
H     3.434000000     5.422000000    -1.735000000
O    -0.073000000     2.231000000    -2.329000000
H    -0.462000000     1.404000000    -2.614000000
H     0.436000000     2.001000000    -1.551000000
O     2.580000000     9.103000000    -3.285000000
H     2.877000000     8.234000000    -3.556000000
H     2.405000000     9.015000000    -2.348000000
O    -0.707000000     7.573000000     3.984000000
H    -0.961000000     6.960000000     4.674000000
H     0.094000000     7.201000000     3.616000000
O     0.130000000     7.163000000    -2.330000000
H    -0.461000000     7.534000000    -2.986000000
H     0.433000000     6.343000000    -2.719000000
