218
-1439.09830
C    -2.216000000     1.061000000     4.530000000
H    -1.346000000     0.504000000     4.868000000
C    -3.061000000     0.373000000     3.619000000
C    -4.162000000     1.046000000     3.084000000
H    -4.669000000     0.620000000     2.223000000
C    -2.707000000    -1.014000000     3.190000000
O    -2.047000000    -1.881000000     4.201000000
H    -2.033000000    -0.948000000     2.323000000
O    -3.799000000    -1.810000000     2.649000000
C    -3.558000000    -2.449000000     1.464000000
C    -3.999000000    -1.843000000     0.348000000
H    -4.522000000    -0.898000000     0.474000000
C    -3.707000000    -2.353000000    -0.880000000
O    -4.103000000    -1.597000000    -1.927000000
C    -3.006000000    -3.552000000    -0.970000000
C    -2.739000000    -4.192000000    -2.326000000
H    -2.611000000    -5.253000000    -2.099000000
C    -1.518000000    -3.630000000    -2.983000000
C    -0.270000000    -4.231000000    -2.805000000
H    -0.340000000    -5.134000000    -2.204000000
H    -3.567000000    -3.967000000    -3.001000000
C    -2.619000000    -4.265000000     0.178000000
H    -1.987000000    -5.148000000     0.134000000
C    -2.913000000    -3.743000000     1.435000000
C    -2.350000000    -4.410000000     2.716000000
H    -2.207000000    -5.450000000     2.417000000
H    -3.025000000    -4.253000000     3.560000000
C    -1.031000000    -3.698000000     3.101000000
C     0.100000000    -4.313000000     2.631000000
H    -0.056000000    -5.220000000     2.051000000
C    -0.905000000    -2.557000000     3.856000000
C     0.319000000    -2.004000000     4.158000000
H     0.442000000    -1.036000000     4.636000000
C     1.491000000    -2.675000000     3.637000000
O     2.680000000    -2.003000000     3.848000000
C     3.062000000    -1.183000000     2.704000000
C     3.572000000     0.188000000     3.031000000
C     4.279000000     0.975000000     2.115000000
H     4.392000000     0.555000000     1.119000000
C     3.125000000     0.819000000     4.232000000
H     2.513000000     0.251000000     4.929000000
O     4.067000000    -1.885000000     1.921000000
H     2.168000000    -1.135000000     2.065000000
C     1.388000000    -3.827000000     2.891000000
C     2.620000000    -4.462000000     2.201000000
H     2.428000000    -5.479000000     1.851000000
H     3.464000000    -4.363000000     2.887000000
C     2.971000000    -3.770000000     0.905000000
C     2.416000000    -4.334000000    -0.264000000
H     1.867000000    -5.270000000    -0.327000000
C     3.742000000    -2.619000000     0.810000000
C     4.094000000    -2.095000000    -0.380000000
H     4.672000000    -1.177000000    -0.310000000
C     3.602000000    -2.661000000    -1.543000000
O     3.748000000    -1.946000000    -2.718000000
C     2.701000000    -1.082000000    -3.102000000
C     3.150000000     0.253000000    -3.586000000
C     4.442000000     0.737000000    -3.298000000
H     5.209000000     0.070000000    -2.912000000
C     2.217000000     1.141000000    -4.122000000
H     1.207000000     0.893000000    -4.436000000
O     1.915000000    -1.668000000    -4.197000000
H     2.058000000    -0.916000000    -2.225000000
C     2.739000000    -3.781000000    -1.506000000
C     2.107000000    -4.282000000    -2.818000000
H     1.945000000    -5.358000000    -2.904000000
H     2.859000000    -4.130000000    -3.595000000
C     0.859000000    -3.602000000    -3.270000000
C     0.801000000    -2.469000000    -3.987000000
C    -0.445000000    -1.864000000    -4.137000000
H    -0.542000000    -0.942000000    -4.705000000
C    -1.583000000    -2.488000000    -3.687000000
O    -2.731000000    -1.781000000    -3.786000000
C    -3.105000000    -0.881000000    -2.706000000
H    -2.214000000    -0.723000000    -2.080000000
C    -3.550000000     0.536000000    -3.173000000
C    -4.426000000     1.288000000    -2.360000000
H    -4.751000000     0.852000000    -1.418000000
C    -3.008000000     1.209000000    -4.288000000
H    -2.452000000     0.701000000    -5.072000000
C    -3.322000000     2.499000000    -4.579000000
O    -3.011000000     2.985000000    -5.860000000
C    -4.112000000     3.263000000    -3.700000000
H    -4.388000000     4.286000000    -3.942000000
C    -4.688000000     2.633000000    -2.620000000
O    -5.525000000     3.409000000    -1.868000000
C    -6.118000000     2.957000000    -0.679000000
C    -5.511000000     3.105000000     0.528000000
H    -4.575000000     3.656000000     0.581000000
C    -7.285000000     2.226000000    -0.783000000
H    -7.801000000     1.985000000    -1.709000000
C    -7.829000000     1.791000000     0.435000000
H    -8.791000000     1.285000000     0.417000000
C    -7.259000000     1.964000000     1.695000000
H    -7.739000000     1.670000000     2.625000000
C    -6.098000000     2.679000000     1.727000000
O    -5.551000000     2.999000000     2.895000000
C    -4.513000000     2.335000000     3.539000000
C    -3.736000000     2.946000000     4.526000000
H    -3.957000000     3.944000000     4.894000000
C    -2.525000000     2.373000000     4.892000000
O    -1.874000000     3.104000000     5.798000000
C    -0.712000000     2.838000000     6.370000000
C     0.438000000     3.050000000     5.648000000
H     0.382000000     3.466000000     4.646000000
C    -0.733000000     2.356000000     7.741000000
H    -1.682000000     2.120000000     8.215000000
C     0.545000000     2.053000000     8.274000000
H     0.545000000     1.647000000     9.282000000
C     1.750000000     2.165000000     7.534000000
H     2.702000000     1.906000000     7.989000000
C     1.712000000     2.738000000     6.248000000
O     2.965000000     2.851000000     5.629000000
C     3.396000000     2.170000000     4.522000000
C     4.149000000     2.892000000     3.615000000
H     4.306000000     3.922000000     3.924000000
C     4.582000000     2.339000000     2.408000000
O     5.233000000     3.118000000     1.537000000
C     6.089000000     2.664000000     0.501000000
C     5.791000000     2.976000000    -0.779000000
H     5.040000000     3.726000000    -1.014000000
C     7.077000000     1.657000000     0.775000000
H     7.264000000     1.283000000     1.779000000
C     7.764000000     1.058000000    -0.259000000
H     8.556000000     0.349000000    -0.030000000
C     7.477000000     1.378000000    -1.560000000
H     8.035000000     0.957000000    -2.392000000
C     6.443000000     2.302000000    -1.814000000
O     6.042000000     2.489000000    -3.119000000
C     4.755000000     2.043000000    -3.518000000
C     3.871000000     2.881000000    -4.194000000
H     4.215000000     3.888000000    -4.417000000
C     2.583000000     2.446000000    -4.501000000
O     1.655000000     3.312000000    -5.143000000
C     0.625000000     2.910000000    -5.867000000
C     0.896000000     2.486000000    -7.171000000
H     1.937000000     2.400000000    -7.474000000
C    -0.140000000     2.272000000    -8.037000000
H     0.184000000     2.117000000    -9.063000000
C    -1.470000000     2.471000000    -7.590000000
H    -2.329000000     2.224000000    -8.210000000
C    -1.682000000     2.838000000    -6.271000000
C    -0.677000000     3.197000000    -5.436000000
H    -0.902000000     3.601000000    -4.452000000
C    -1.051000000     2.225000000     0.699000000
H    -1.984000000     2.782000000     0.748000000
C    -1.117000000     0.872000000     0.505000000
H    -2.074000000     0.357000000     0.528000000
C     0.062000000     0.169000000     0.250000000
C    -0.122000000    -1.367000000     0.179000000
H    -0.813000000    -1.759000000    -0.570000000
H     0.843000000    -1.773000000    -0.130000000
H    -0.334000000    -1.771000000     1.171000000
C     1.300000000     0.807000000     0.213000000
H     2.156000000     0.228000000    -0.125000000
C     1.293000000     2.188000000     0.396000000
H     2.252000000     2.696000000     0.329000000
C     0.128000000     2.913000000     0.626000000
C     0.149000000     4.392000000     0.622000000
O     1.224000000     4.956000000     0.526000000
O    -0.819000000     4.982000000     1.041000000
O     1.722000000     9.580000000     3.446000000
H     1.459000000    10.489000000     3.301000000
H     1.055000000     9.064000000     2.993000000
O    -0.460000000     5.949000000     5.883000000
H     0.059000000     5.197000000     6.167000000
H    -0.891000000     6.257000000     6.681000000
O    -3.614000000     7.869000000     1.034000000
H    -3.666000000     8.825000000     1.004000000
H    -4.005000000     7.635000000     1.876000000
O     5.502000000     7.573000000     0.764000000
H     4.947000000     6.845000000     0.486000000
H     5.106000000     7.877000000     1.581000000
O     4.226000000     6.936000000     4.367000000
H     3.496000000     6.387000000     4.078000000
H     3.987000000     7.204000000     5.254000000
O     0.037000000     7.449000000     0.104000000
H    -0.824000000     7.031000000     0.105000000
H     0.625000000     6.786000000     0.466000000
O    -3.009000000     6.560000000    -4.778000000
H    -2.633000000     6.358000000    -5.635000000
H    -2.354000000     6.255000000    -4.151000000
O    -0.734000000     6.058000000    -3.291000000
H     0.171000000     5.967000000    -2.994000000
H    -1.259000000     5.929000000    -2.501000000
O     1.949000000     5.619000000     3.087000000
H     1.863000000     5.417000000     2.155000000
H     1.054000000     5.795000000     3.377000000
O     0.023000000    10.182000000    -0.446000000
H     0.227000000     9.251000000    -0.355000000
H    -0.296000000    10.443000000     0.417000000
O     3.873000000     5.324000000     0.557000000
H     4.092000000     4.642000000     1.193000000
H     2.917000000     5.355000000     0.558000000
O    -4.379000000     7.184000000     3.781000000
H    -4.485000000     7.037000000     4.721000000
H    -3.655000000     6.612000000     3.529000000
O     1.672000000     5.696000000    -2.443000000
H     2.396000000     6.226000000    -2.777000000
H     1.787000000     5.706000000    -1.493000000
O    -4.025000000     6.693000000    -1.329000000
H    -3.851000000     6.973000000    -0.431000000
H    -3.598000000     5.840000000    -1.401000000
O     2.323000000     6.612000000     6.853000000
H     1.743000000     6.746000000     7.602000000
H     1.733000000     6.535000000     6.104000000
O    -1.377000000     8.997000000     4.140000000
H    -1.326000000     9.455000000     4.979000000
H    -1.802000000     8.165000000     4.347000000
O    -2.206000000     4.665000000    -1.462000000
H    -1.930000000     4.729000000    -0.548000000
H    -1.654000000     3.975000000    -1.831000000
O    -2.281000000     5.813000000     3.149000000
H    -1.775000000     5.706000000     3.954000000
H    -1.820000000     5.278000000     2.503000000
O     0.153000000     8.758000000    -4.254000000
H     0.780000000     8.522000000    -4.938000000
H    -0.155000000     7.919000000    -3.913000000
