218
-1453.40246
C    -2.244000000     0.880000000     4.837000000
H    -1.456000000     0.216000000     5.182000000
C    -2.976000000     0.468000000     3.678000000
C    -3.866000000     1.387000000     3.084000000
H    -4.303000000     1.126000000     2.124000000
C    -2.702000000    -0.835000000     3.031000000
O    -2.120000000    -1.777000000     3.968000000
H    -2.127000000    -0.741000000     2.098000000
O    -3.923000000    -1.432000000     2.519000000
C    -3.801000000    -2.161000000     1.344000000
C    -4.218000000    -1.553000000     0.126000000
H    -4.734000000    -0.607000000     0.269000000
C    -3.953000000    -2.228000000    -1.052000000
O    -4.265000000    -1.441000000    -2.111000000
C    -3.291000000    -3.473000000    -1.101000000
C    -2.967000000    -4.022000000    -2.419000000
H    -2.887000000    -5.110000000    -2.363000000
C    -1.685000000    -3.565000000    -3.072000000
C    -0.454000000    -4.206000000    -2.715000000
H    -0.462000000    -5.061000000    -2.043000000
H    -3.840000000    -3.869000000    -3.058000000
C    -2.897000000    -4.047000000     0.106000000
H    -2.419000000    -5.023000000     0.064000000
C    -3.146000000    -3.439000000     1.308000000
C    -2.631000000    -4.180000000     2.567000000
H    -2.603000000    -5.268000000     2.473000000
H    -3.385000000    -3.870000000     3.294000000
C    -1.245000000    -3.771000000     2.957000000
C    -0.094000000    -4.470000000     2.582000000
H    -0.051000000    -5.372000000     1.976000000
C    -1.064000000    -2.512000000     3.638000000
C     0.137000000    -1.985000000     3.897000000
H     0.203000000    -1.054000000     4.455000000
C     1.294000000    -2.651000000     3.582000000
O     2.437000000    -1.941000000     3.818000000
C     3.004000000    -1.192000000     2.733000000
C     3.612000000     0.176000000     3.185000000
C     4.578000000     0.815000000     2.439000000
H     5.110000000     0.298000000     1.644000000
C     2.947000000     0.869000000     4.210000000
H     2.044000000     0.533000000     4.713000000
O     3.979000000    -1.920000000     2.070000000
H     2.248000000    -0.990000000     1.960000000
C     1.134000000    -3.861000000     2.835000000
C     2.460000000    -4.455000000     2.305000000
H     2.438000000    -5.546000000     2.303000000
H     3.245000000    -4.158000000     3.003000000
C     2.894000000    -3.848000000     0.965000000
C     2.471000000    -4.462000000    -0.242000000
H     1.834000000    -5.342000000    -0.292000000
C     3.596000000    -2.619000000     0.913000000
C     3.852000000    -2.049000000    -0.332000000
H     4.459000000    -1.148000000    -0.366000000
C     3.433000000    -2.636000000    -1.492000000
O     3.635000000    -1.899000000    -2.602000000
C     2.469000000    -1.188000000    -3.150000000
C     2.824000000     0.221000000    -3.556000000
C     3.720000000     0.950000000    -2.809000000
H     4.143000000     0.449000000    -1.941000000
C     2.132000000     0.878000000    -4.587000000
H     1.593000000     0.368000000    -5.382000000
O     1.840000000    -1.847000000    -4.219000000
H     1.693000000    -1.215000000    -2.371000000
C     2.742000000    -3.846000000    -1.515000000
C     2.117000000    -4.378000000    -2.765000000
H     1.957000000    -5.448000000    -2.615000000
H     2.830000000    -4.201000000    -3.574000000
C     0.750000000    -3.690000000    -3.176000000
C     0.755000000    -2.533000000    -3.907000000
C    -0.439000000    -1.887000000    -4.207000000
H    -0.435000000    -0.990000000    -4.820000000
C    -1.637000000    -2.409000000    -3.844000000
O    -2.778000000    -1.696000000    -3.972000000
C    -3.202000000    -0.873000000    -2.821000000
H    -2.356000000    -0.851000000    -2.118000000
C    -3.573000000     0.539000000    -3.172000000
C    -3.995000000     1.489000000    -2.242000000
H    -4.201000000     1.249000000    -1.202000000
C    -3.118000000     1.033000000    -4.438000000
H    -2.688000000     0.272000000    -5.084000000
C    -3.341000000     2.331000000    -4.769000000
O    -3.011000000     2.713000000    -6.089000000
C    -3.882000000     3.255000000    -3.885000000
H    -3.946000000     4.306000000    -4.152000000
C    -4.217000000     2.831000000    -2.597000000
O    -4.694000000     3.760000000    -1.704000000
C    -5.321000000     3.374000000    -0.559000000
C    -4.740000000     3.538000000     0.682000000
H    -3.777000000     4.028000000     0.796000000
C    -6.568000000     2.790000000    -0.588000000
H    -7.016000000     2.657000000    -1.569000000
C    -7.252000000     2.381000000     0.605000000
H    -8.232000000     1.912000000     0.550000000
C    -6.703000000     2.765000000     1.794000000
H    -7.131000000     2.475000000     2.750000000
C    -5.473000000     3.345000000     1.830000000
O    -4.880000000     3.582000000     3.052000000
C    -4.076000000     2.635000000     3.628000000
C    -3.462000000     3.008000000     4.854000000
H    -3.561000000     3.967000000     5.355000000
C    -2.533000000     2.121000000     5.443000000
O    -1.943000000     2.496000000     6.627000000
C    -0.572000000     2.243000000     6.897000000
C     0.461000000     2.716000000     6.041000000
H     0.162000000     3.247000000     5.141000000
C    -0.214000000     1.573000000     8.114000000
H    -0.955000000     1.132000000     8.776000000
C     1.103000000     1.382000000     8.388000000
H     1.344000000     0.848000000     9.304000000
C     2.092000000     1.765000000     7.534000000
H     3.154000000     1.696000000     7.756000000
C     1.768000000     2.417000000     6.373000000
O     2.803000000     2.901000000     5.567000000
C     3.365000000     2.176000000     4.537000000
C     4.455000000     2.773000000     3.906000000
H     4.793000000     3.743000000     4.262000000
C     5.084000000     2.025000000     2.916000000
O     6.197000000     2.472000000     2.212000000
C     6.406000000     2.222000000     0.871000000
C     5.671000000     2.831000000    -0.093000000
H     4.831000000     3.470000000     0.166000000
C     7.341000000     1.224000000     0.541000000
H     7.947000000     0.712000000     1.285000000
C     7.409000000     0.706000000    -0.762000000
H     8.178000000    -0.025000000    -0.995000000
C     6.642000000     1.281000000    -1.815000000
H     6.725000000     1.071000000    -2.879000000
C     5.781000000     2.382000000    -1.387000000
O     4.939000000     2.921000000    -2.329000000
C     4.047000000     2.233000000    -3.059000000
C     3.344000000     2.931000000    -4.006000000
H     3.538000000     3.984000000    -4.193000000
C     2.355000000     2.291000000    -4.763000000
O     1.844000000     2.991000000    -5.875000000
C     0.689000000     2.767000000    -6.613000000
C     0.764000000     2.656000000    -8.000000000
H     1.645000000     2.687000000    -8.635000000
C    -0.402000000     2.496000000    -8.739000000
H    -0.351000000     2.297000000    -9.806000000
C    -1.633000000     2.320000000    -8.033000000
H    -2.505000000     2.119000000    -8.649000000
C    -1.701000000     2.683000000    -6.674000000
C    -0.545000000     2.853000000    -5.938000000
H    -0.583000000     3.127000000    -4.886000000
C    -0.507000000     2.267000000     1.196000000
H    -1.368000000     2.846000000     1.521000000
C    -0.784000000     0.993000000     0.826000000
H    -1.852000000     0.789000000     0.808000000
C     0.227000000     0.065000000     0.362000000
C    -0.162000000    -1.346000000    -0.020000000
H     0.444000000    -1.628000000    -0.883000000
H    -0.138000000    -2.014000000     0.844000000
H    -1.204000000    -1.307000000    -0.345000000
C     1.535000000     0.611000000     0.190000000
H     2.335000000     0.000000000    -0.219000000
C     1.737000000     2.026000000     0.324000000
H     2.722000000     2.449000000     0.144000000
C     0.654000000     2.853000000     0.807000000
C     0.791000000     4.402000000     0.808000000
O     1.749000000     4.763000000     0.267000000
O     0.071000000     5.162000000     1.396000000
O    -4.024000000     7.233000000     1.084000000
H    -3.518000000     6.816000000     1.782000000
H    -3.465000000     7.947000000     0.777000000
O    -2.135000000     6.070000000     2.812000000
H    -1.391000000     5.757000000     2.297000000
H    -1.764000000     6.269000000     3.672000000
O    -0.789000000     5.772000000    -4.903000000
H    -0.779000000     5.033000000    -5.512000000
H    -0.177000000     5.520000000    -4.211000000
O     2.094000000     7.817000000     3.367000000
H     1.981000000     7.995000000     2.433000000
H     1.969000000     8.666000000     3.790000000
O     4.542000000     8.042000000     1.014000000
H     4.260000000     7.158000000     0.779000000
H     3.927000000     8.618000000     0.560000000
O     2.141000000     5.689000000     6.688000000
H     2.207000000     5.337000000     5.800000000
H     1.206000000     5.852000000     6.811000000
O     0.767000000     7.865000000     0.971000000
H     0.508000000     7.996000000     0.059000000
H     0.559000000     6.948000000     1.150000000
O     0.408000000     5.377000000    -2.013000000
H     0.972000000     5.515000000    -1.252000000
H     0.168000000     4.451000000    -1.969000000
O    -3.747000000     6.283000000    -2.331000000
H    -4.320000000     6.865000000    -1.832000000
H    -3.936000000     5.409000000    -1.988000000
O     1.573000000     5.288000000     3.682000000
H     0.897000000     5.235000000     3.007000000
H     1.831000000     6.210000000     3.690000000
O     2.958000000     7.537000000    -3.277000000
H     2.890000000     8.216000000    -2.606000000
H     2.461000000     7.883000000    -4.019000000
O     3.719000000     5.325000000     2.076000000
H     3.111000000     5.085000000     1.376000000
H     3.180000000     5.339000000     2.867000000
O     6.461000000     5.111000000     1.665000000
H     6.468000000     4.211000000     1.990000000
H     5.534000000     5.349000000     1.641000000
O    -0.394000000     9.497000000     2.933000000
H     0.061000000     9.291000000     2.116000000
H    -0.481000000     8.654000000     3.378000000
O     6.622000000     6.749000000    -1.469000000
H     5.731000000     6.407000000    -1.386000000
H     7.078000000     6.418000000    -0.695000000
O     3.893000000     5.632000000    -1.433000000
H     3.175000000     5.117000000    -1.065000000
H     3.479000000     6.176000000    -2.103000000
O     0.231000000     2.513000000    -2.216000000
H     0.204000000     2.026000000    -1.392000000
H     1.164000000     2.621000000    -2.399000000
O    -0.491000000     7.387000000     4.735000000
H    -0.237000000     6.698000000     5.350000000
H    -0.908000000     8.053000000     5.281000000
O    -0.498000000     7.777000000    -2.628000000
H    -1.389000000     7.430000000    -2.596000000
H     0.056000000     7.038000000    -2.375000000
