218
-1447.60615
C    -1.900000000     2.622000000     3.541000000
H    -0.996000000     2.466000000     4.123000000
C    -2.759000000     1.640000000     2.993000000
C    -3.790000000     2.013000000     2.139000000
H    -4.426000000     1.293000000     1.628000000
C    -2.458000000     0.097000000     3.132000000
O    -1.939000000    -0.178000000     4.432000000
H    -1.671000000    -0.256000000     2.450000000
O    -3.602000000    -0.784000000     3.091000000
C    -3.475000000    -1.894000000     2.353000000
C    -4.014000000    -1.829000000     1.119000000
H    -4.572000000    -0.981000000     0.732000000
C    -3.641000000    -2.791000000     0.202000000
O    -4.102000000    -2.513000000    -1.073000000
C    -2.966000000    -3.952000000     0.533000000
C    -2.521000000    -4.941000000    -0.416000000
H    -2.364000000    -5.892000000     0.098000000
C    -1.256000000    -4.466000000    -1.112000000
C    -0.009000000    -4.936000000    -0.732000000
H     0.069000000    -5.637000000     0.094000000
H    -3.293000000    -5.187000000    -1.148000000
C    -2.472000000    -4.047000000     1.828000000
H    -1.915000000    -4.904000000     2.200000000
C    -2.727000000    -2.981000000     2.737000000
C    -2.136000000    -3.028000000     4.125000000
H    -1.926000000    -4.078000000     4.341000000
H    -2.886000000    -2.816000000     4.889000000
C    -0.808000000    -2.241000000     4.227000000
C     0.406000000    -2.888000000     4.065000000
H     0.379000000    -3.949000000     3.832000000
C    -0.808000000    -0.889000000     4.357000000
C     0.364000000    -0.194000000     4.206000000
H     0.297000000     0.890000000     4.158000000
C     1.631000000    -0.845000000     4.110000000
O     2.783000000    -0.172000000     4.081000000
C     3.380000000     0.170000000     2.771000000
C     3.974000000     1.590000000     2.801000000
C     4.914000000     2.005000000     1.839000000
H     5.324000000     1.190000000     1.249000000
C     3.427000000     2.521000000     3.728000000
H     2.708000000     2.307000000     4.515000000
O     4.379000000    -0.832000000     2.503000000
H     2.598000000     0.156000000     1.997000000
C     1.627000000    -2.236000000     4.033000000
C     2.944000000    -2.998000000     3.749000000
H     2.891000000    -3.983000000     4.218000000
H     3.690000000    -2.450000000     4.328000000
C     3.211000000    -2.981000000     2.341000000
C     2.767000000    -3.914000000     1.455000000
H     2.246000000    -4.770000000     1.877000000
C     3.852000000    -1.878000000     1.783000000
C     4.038000000    -1.747000000     0.385000000
H     4.603000000    -0.933000000    -0.062000000
C     3.664000000    -2.773000000    -0.483000000
O     3.908000000    -2.536000000    -1.874000000
C     2.699000000    -2.168000000    -2.676000000
C     2.901000000    -0.990000000    -3.628000000
C     3.611000000     0.142000000    -3.163000000
H     4.071000000     0.107000000    -2.178000000
C     2.247000000    -0.877000000    -4.873000000
H     1.645000000    -1.726000000    -5.188000000
O     2.099000000    -3.328000000    -3.305000000
H     1.975000000    -1.766000000    -1.952000000
C     3.011000000    -3.839000000     0.004000000
C     2.544000000    -4.916000000    -0.909000000
H     2.393000000    -5.805000000    -0.294000000
H     3.220000000    -5.043000000    -1.757000000
C     1.191000000    -4.602000000    -1.432000000
C     1.070000000    -3.863000000    -2.596000000
C    -0.213000000    -3.406000000    -3.009000000
H    -0.276000000    -2.744000000    -3.868000000
C    -1.320000000    -3.656000000    -2.252000000
O    -2.474000000    -3.027000000    -2.767000000
C    -3.183000000    -1.995000000    -2.050000000
H    -2.442000000    -1.516000000    -1.394000000
C    -3.834000000    -0.942000000    -2.923000000
C    -4.938000000    -0.206000000    -2.473000000
H    -5.503000000    -0.524000000    -1.600000000
C    -3.298000000    -0.663000000    -4.166000000
H    -2.352000000    -1.095000000    -4.482000000
C    -3.825000000     0.355000000    -4.906000000
O    -3.226000000     0.658000000    -6.144000000
C    -4.867000000     1.091000000    -4.521000000
H    -5.267000000     1.952000000    -5.050000000
C    -5.455000000     0.794000000    -3.310000000
O    -6.543000000     1.520000000    -2.929000000
C    -6.703000000     1.921000000    -1.616000000
C    -5.728000000     2.644000000    -0.901000000
H    -4.800000000     2.910000000    -1.399000000
C    -7.900000000     1.554000000    -0.943000000
H    -8.610000000     1.014000000    -1.566000000
C    -8.039000000     1.735000000     0.400000000
H    -8.972000000     1.380000000     0.830000000
C    -7.099000000     2.434000000     1.143000000
H    -7.255000000     2.744000000     2.173000000
C    -5.996000000     2.955000000     0.453000000
O    -5.067000000     3.790000000     1.186000000
C    -3.991000000     3.375000000     1.893000000
C    -3.205000000     4.421000000     2.476000000
H    -3.400000000     5.417000000     2.087000000
C    -2.110000000     4.003000000     3.245000000
O    -1.270000000     4.972000000     3.747000000
C    -0.273000000     4.777000000     4.629000000
C     1.032000000     4.674000000     4.131000000
H     1.262000000     4.724000000     3.070000000
C    -0.535000000     4.679000000     5.997000000
H    -1.577000000     4.718000000     6.304000000
C     0.484000000     4.651000000     6.903000000
H     0.312000000     4.792000000     7.967000000
C     1.783000000     4.653000000     6.424000000
H     2.634000000     4.808000000     7.081000000
C     2.078000000     4.666000000     5.049000000
O     3.364000000     4.756000000     4.594000000
C     3.830000000     3.847000000     3.656000000
C     4.749000000     4.219000000     2.682000000
H     4.920000000     5.290000000     2.606000000
C     5.289000000     3.360000000     1.720000000
O     6.092000000     3.876000000     0.782000000
C     6.284000000     3.209000000    -0.380000000
C     5.201000000     3.157000000    -1.232000000
H     4.284000000     3.701000000    -1.023000000
C     7.489000000     2.542000000    -0.664000000
H     8.334000000     2.446000000     0.014000000
C     7.643000000     1.952000000    -1.877000000
H     8.634000000     1.563000000    -2.096000000
C     6.546000000     1.914000000    -2.731000000
H     6.727000000     1.409000000    -3.676000000
C     5.300000000     2.506000000    -2.397000000
O     4.224000000     2.449000000    -3.311000000
C     3.697000000     1.341000000    -3.882000000
C     3.005000000     1.393000000    -5.056000000
H     3.185000000     2.310000000    -5.612000000
C     2.218000000     0.353000000    -5.504000000
O     1.474000000     0.425000000    -6.673000000
C     0.260000000    -0.194000000    -6.797000000
C     0.208000000    -1.261000000    -7.728000000
H     1.148000000    -1.590000000    -8.163000000
C    -1.058000000    -1.690000000    -8.051000000
H    -1.130000000    -2.447000000    -8.828000000
C    -2.206000000    -1.128000000    -7.472000000
H    -3.196000000    -1.461000000    -7.773000000
C    -2.138000000     0.021000000    -6.636000000
C    -0.878000000     0.426000000    -6.270000000
H    -0.800000000     1.348000000    -5.701000000
C    -1.043000000     2.476000000    -0.519000000
H    -1.986000000     3.013000000    -0.589000000
C    -1.120000000     1.138000000    -0.070000000
H    -2.109000000     0.787000000     0.213000000
C    -0.045000000     0.290000000    -0.145000000
C    -0.230000000    -1.109000000     0.283000000
H    -1.206000000    -1.336000000     0.717000000
H    -0.073000000    -1.687000000    -0.631000000
H     0.476000000    -1.471000000     1.033000000
C     1.207000000     0.788000000    -0.446000000
H     2.110000000     0.183000000    -0.407000000
C     1.328000000     2.136000000    -0.826000000
H     2.324000000     2.552000000    -0.958000000
C     0.200000000     2.966000000    -1.002000000
C     0.384000000     4.446000000    -1.288000000
O     1.517000000     4.859000000    -0.905000000
O    -0.611000000     5.133000000    -1.408000000
O    -4.462000000     5.274000000    -2.575000000
H    -5.152000000     5.050000000    -3.199000000
H    -4.917000000     5.733000000    -1.869000000
O     3.822000000     8.809000000    -3.061000000
H     3.263000000     8.033000000    -3.038000000
H     4.697000000     8.481000000    -2.856000000
O     1.782000000    10.204000000    -4.081000000
H     2.499000000     9.688000000    -3.714000000
H     1.002000000     9.890000000    -3.624000000
O    -0.412000000     7.645000000     0.161000000
H    -0.775000000     6.771000000     0.016000000
H    -0.052000000     7.611000000     1.048000000
O     1.140000000     7.774000000     2.427000000
H     1.991000000     8.103000000     2.715000000
H     0.566000000     7.903000000     3.182000000
O     4.296000000     5.147000000    -5.007000000
H     5.099000000     5.664000000    -4.952000000
H     4.218000000     4.922000000    -5.934000000
O    -0.112000000     6.353000000    -4.538000000
H    -0.765000000     6.525000000    -3.859000000
H     0.629000000     5.974000000    -4.066000000
O    -0.067000000     9.795000000    -2.328000000
H     0.311000000     9.368000000    -1.559000000
H    -1.012000000     9.679000000    -2.224000000
O     0.660000000     3.136000000    -7.539000000
H    -0.104000000     3.550000000    -7.137000000
H     0.542000000     2.201000000    -7.373000000
O    -3.190000000     7.554000000     0.408000000
H    -3.954000000     7.397000000    -0.147000000
H    -2.450000000     7.556000000    -0.198000000
O     2.589000000     7.248000000     0.078000000
H     1.924000000     7.420000000     0.744000000
H     2.306000000     6.433000000    -0.337000000
O     6.111000000     7.302000000    -1.761000000
H     7.064000000     7.230000000    -1.696000000
H     5.784000000     6.842000000    -0.988000000
O    -2.313000000     3.904000000    -3.574000000
H    -3.165000000     4.291000000    -3.375000000
H    -1.831000000     3.948000000    -2.748000000
O    -1.941000000     3.564000000    -6.387000000
H    -2.046000000     3.829000000    -5.474000000
H    -2.529000000     2.815000000    -6.489000000
O     2.283000000     6.690000000    -2.936000000
H     2.691000000     6.199000000    -3.650000000
H     1.932000000     6.017000000    -2.353000000
O     3.397000000     9.881000000    -0.586000000
H     3.317000000     9.909000000    -1.539000000
H     3.034000000     9.030000000    -0.340000000
O    -2.223000000     6.709000000    -2.534000000
H    -2.938000000     6.186000000    -2.896000000
H    -1.693000000     6.081000000    -2.041000000
O     0.990000000     7.372000000    -7.073000000
H     0.555000000     7.241000000    -6.230000000
H     0.273000000     7.469000000    -7.700000000
O    -2.570000000     9.333000000    -1.943000000
H    -3.496000000     9.553000000    -1.837000000
H    -2.561000000     8.382000000    -2.054000000
