218
-1469.11274
C    -3.044000000    -0.646000000     4.270000000
H    -2.423000000    -1.353000000     4.814000000
C    -3.419000000    -0.968000000     2.950000000
C    -4.286000000    -0.048000000     2.332000000
H    -4.675000000    -0.278000000     1.343000000
C    -3.017000000    -2.167000000     2.132000000
O    -2.547000000    -3.241000000     2.907000000
H    -2.128000000    -1.888000000     1.547000000
O    -4.026000000    -2.628000000     1.180000000
C    -3.573000000    -2.939000000    -0.057000000
C    -3.911000000    -2.087000000    -1.036000000
H    -4.487000000    -1.203000000    -0.778000000
C    -3.281000000    -2.146000000    -2.287000000
O    -3.507000000    -1.149000000    -3.214000000
C    -2.453000000    -3.246000000    -2.569000000
C    -1.772000000    -3.238000000    -3.945000000
H    -1.465000000    -4.278000000    -4.076000000
C    -0.499000000    -2.450000000    -4.106000000
C     0.731000000    -3.145000000    -4.000000000
H     0.699000000    -4.214000000    -3.806000000
H    -2.401000000    -3.015000000    -4.809000000
C    -2.205000000    -4.242000000    -1.586000000
H    -1.650000000    -5.154000000    -1.791000000
C    -2.722000000    -4.062000000    -0.280000000
C    -2.308000000    -5.100000000     0.788000000
H    -2.200000000    -6.031000000     0.226000000
H    -3.100000000    -5.392000000     1.481000000
C    -1.071000000    -4.697000000     1.603000000
C     0.212000000    -5.024000000     1.182000000
H     0.263000000    -5.394000000     0.162000000
C    -1.302000000    -3.774000000     2.659000000
C    -0.202000000    -3.245000000     3.264000000
H    -0.468000000    -2.497000000     4.007000000
C     1.106000000    -3.593000000     2.859000000
O     2.090000000    -2.888000000     3.508000000
C     2.537000000    -1.762000000     2.646000000
C     2.734000000    -0.465000000     3.458000000
C     3.315000000     0.646000000     2.834000000
H     3.742000000     0.548000000     1.839000000
C     2.008000000    -0.295000000     4.636000000
H     1.461000000    -1.059000000     5.183000000
O     3.767000000    -2.172000000     1.995000000
H     1.769000000    -1.529000000     1.894000000
C     1.317000000    -4.480000000     1.805000000
C     2.671000000    -4.779000000     1.300000000
H     2.742000000    -5.725000000     0.760000000
H     3.369000000    -4.714000000     2.138000000
C     3.233000000    -3.739000000     0.282000000
C     3.156000000    -3.946000000    -1.110000000
H     2.849000000    -4.909000000    -1.509000000
C     3.737000000    -2.487000000     0.679000000
C     4.055000000    -1.503000000    -0.158000000
H     4.402000000    -0.549000000     0.229000000
C     3.973000000    -1.745000000    -1.516000000
O     4.399000000    -0.759000000    -2.288000000
C     3.429000000     0.162000000    -2.828000000
C     3.781000000     1.676000000    -2.766000000
C     4.929000000     2.058000000    -2.101000000
H     5.448000000     1.388000000    -1.422000000
C     2.965000000     2.684000000    -3.385000000
H     2.070000000     2.346000000    -3.901000000
O     3.049000000    -0.246000000    -4.167000000
H     2.578000000     0.031000000    -2.143000000
C     3.497000000    -2.925000000    -1.990000000
C     3.234000000    -3.089000000    -3.463000000
H     3.179000000    -4.171000000    -3.594000000
H     4.125000000    -2.725000000    -3.980000000
C     1.941000000    -2.434000000    -3.981000000
C     1.934000000    -1.052000000    -4.292000000
C     0.686000000    -0.349000000    -4.444000000
H     0.738000000     0.736000000    -4.490000000
C    -0.525000000    -1.061000000    -4.392000000
O    -1.687000000    -0.316000000    -4.499000000
C    -2.509000000    -0.055000000    -3.330000000
H    -1.874000000    -0.149000000    -2.437000000
C    -3.197000000     1.314000000    -3.386000000
C    -4.495000000     1.598000000    -2.990000000
H    -5.099000000     0.747000000    -2.684000000
C    -2.378000000     2.427000000    -3.709000000
H    -1.355000000     2.274000000    -4.044000000
C    -2.867000000     3.740000000    -3.648000000
O    -2.093000000     4.810000000    -4.055000000
C    -4.139000000     3.941000000    -3.231000000
H    -4.545000000     4.927000000    -3.023000000
C    -4.981000000     2.883000000    -2.894000000
O    -6.143000000     3.088000000    -2.256000000
C    -6.493000000     2.326000000    -1.136000000
C    -5.863000000     2.551000000     0.083000000
H    -5.037000000     3.258000000     0.113000000
C    -7.539000000     1.434000000    -1.231000000
H    -7.989000000     1.314000000    -2.213000000
C    -8.024000000     0.748000000    -0.114000000
H    -8.843000000     0.046000000    -0.253000000
C    -7.270000000     0.848000000     1.052000000
H    -7.522000000     0.270000000     1.938000000
C    -6.214000000     1.784000000     1.128000000
O    -5.644000000     1.933000000     2.416000000
C    -4.705000000     1.088000000     2.956000000
C    -4.376000000     1.388000000     4.283000000
H    -4.816000000     2.271000000     4.739000000
C    -3.451000000     0.543000000     4.894000000
O    -3.170000000     0.764000000     6.238000000
C    -1.986000000     0.425000000     6.846000000
C    -0.740000000     0.777000000     6.329000000
H    -0.756000000     1.161000000     5.312000000
C    -2.037000000    -0.174000000     8.132000000
H    -2.959000000    -0.464000000     8.629000000
C    -0.869000000    -0.429000000     8.830000000
H    -0.899000000    -0.862000000     9.827000000
C     0.333000000    -0.117000000     8.233000000
H     1.226000000    -0.363000000     8.802000000
C     0.421000000     0.489000000     7.011000000
O     1.626000000     1.109000000     6.654000000
C     2.121000000     0.938000000     5.322000000
C     2.862000000     1.975000000     4.692000000
H     3.036000000     2.930000000     5.183000000
C     3.484000000     1.881000000     3.494000000
O     4.052000000     2.967000000     2.793000000
C     5.229000000     2.787000000     2.035000000
C     5.236000000     3.409000000     0.797000000
H     4.369000000     3.941000000     0.416000000
C     6.279000000     1.897000000     2.421000000
H     6.271000000     1.457000000     3.415000000
C     7.388000000     1.789000000     1.512000000
H     8.260000000     1.234000000     1.846000000
C     7.519000000     2.535000000     0.349000000
H     8.424000000     2.447000000    -0.247000000
C     6.417000000     3.315000000    -0.072000000
O     6.362000000     3.760000000    -1.366000000
C     5.262000000     3.404000000    -2.076000000
C     4.555000000     4.428000000    -2.642000000
H     4.891000000     5.461000000    -2.627000000
C     3.432000000     4.048000000    -3.343000000
O     2.749000000     5.003000000    -4.094000000
C     1.512000000     4.739000000    -4.702000000
C     1.564000000     4.219000000    -5.999000000
H     2.561000000     4.017000000    -6.381000000
C     0.377000000     3.863000000    -6.660000000
H     0.444000000     3.545000000    -7.698000000
C    -0.872000000     4.078000000    -6.030000000
H    -1.742000000     3.566000000    -6.431000000
C    -0.886000000     4.680000000    -4.752000000
C     0.304000000     4.976000000    -4.059000000
H     0.243000000     5.196000000    -2.996000000
C    -1.724000000     2.271000000     0.192000000
H    -2.719000000     2.710000000     0.169000000
C    -1.545000000     0.914000000     0.318000000
H    -2.410000000     0.257000000     0.289000000
C    -0.238000000     0.332000000     0.242000000
C    -0.076000000    -1.122000000     0.033000000
H     0.979000000    -1.374000000    -0.094000000
H    -0.519000000    -1.703000000     0.845000000
H    -0.508000000    -1.510000000    -0.893000000
C     0.810000000     1.242000000     0.185000000
H     1.786000000     0.789000000     0.032000000
C     0.669000000     2.605000000     0.138000000
H     1.478000000     3.287000000    -0.111000000
C    -0.603000000     3.118000000     0.113000000
C    -0.737000000     4.598000000    -0.125000000
O     0.155000000     5.342000000    -0.399000000
O    -1.784000000     5.190000000     0.230000000
O     0.767000000     9.349000000    -0.386000000
H     0.880000000     8.513000000    -0.840000000
H     0.636000000     9.986000000    -1.088000000
O    -0.447000000     1.759000000     2.987000000
H    -1.368000000     1.498000000     2.991000000
H    -0.143000000     1.549000000     2.104000000
O    -6.621000000     7.210000000    -0.106000000
H    -6.426000000     7.452000000    -1.012000000
H    -5.952000000     6.563000000     0.118000000
O     2.114000000     8.017000000    -3.955000000
H     2.789000000     7.396000000    -4.227000000
H     2.017000000     7.869000000    -3.014000000
O    -2.416000000     7.297000000    -1.473000000
H    -2.858000000     6.979000000    -0.685000000
H    -1.782000000     6.612000000    -1.684000000
O     3.009000000     6.385000000     1.241000000
H     2.105000000     6.674000000     1.360000000
H     3.272000000     6.057000000     2.101000000
O     1.924000000     5.183000000     5.203000000
H     1.209000000     4.750000000     4.736000000
H     2.543000000     5.430000000     4.516000000
O    -2.825000000     4.665000000     5.105000000
H    -3.036000000     5.568000000     5.338000000
H    -2.901000000     4.180000000     5.927000000
O    -4.868000000     9.262000000     0.941000000
H    -5.650000000     8.810000000     0.626000000
H    -4.350000000     8.576000000     1.364000000
O    -3.951000000     6.613000000    -5.495000000
H    -4.088000000     7.560000000    -5.530000000
H    -3.381000000     6.481000000    -4.738000000
O     2.102000000     6.969000000    -1.223000000
H     1.327000000     6.485000000    -0.939000000
H     2.755000000     6.794000000    -0.546000000
O    -0.276000000     4.367000000     4.071000000
H    -1.185000000     4.564000000     4.294000000
H    -0.295000000     3.458000000     3.770000000
O     0.411000000     6.692000000     1.854000000
H     0.136000000     6.263000000     1.043000000
H     0.129000000     6.095000000     2.547000000
O    -1.371000000     8.553000000     4.178000000
H    -0.775000000     8.146000000     4.807000000
H    -0.796000000     8.941000000     3.519000000
O    -2.673000000     7.752000000     1.662000000
H    -2.242000000     7.854000000     2.511000000
H    -2.179000000     7.060000000     1.224000000
O     0.694000000     9.420000000     2.287000000
H     0.765000000     8.468000000     2.366000000
H     0.549000000     9.573000000     1.354000000
O    -4.489000000     4.416000000     2.934000000
H    -5.051000000     3.664000000     3.117000000
H    -3.872000000     4.438000000     3.666000000
O    -4.229000000     5.786000000     0.256000000
H    -4.308000000     5.489000000     1.163000000
H    -3.392000000     5.429000000    -0.041000000
O    -2.061000000     9.818000000    -2.383000000
H    -1.124000000     9.932000000    -2.539000000
H    -2.132000000     8.963000000    -1.959000000
