218
-1437.39674
C    -3.923000000    -0.278000000     3.703000000
H    -3.625000000    -1.228000000     4.140000000
C    -4.347000000    -0.170000000     2.348000000
C    -4.718000000     1.112000000     1.911000000
H    -4.882000000     1.278000000     0.850000000
C    -4.170000000    -1.338000000     1.452000000
O    -4.128000000    -2.658000000     2.120000000
H    -3.153000000    -1.203000000     1.056000000
O    -5.048000000    -1.364000000     0.315000000
C    -4.411000000    -1.521000000    -0.881000000
C    -4.174000000    -0.372000000    -1.676000000
H    -4.406000000     0.603000000    -1.256000000
C    -3.476000000    -0.465000000    -2.889000000
O    -3.144000000     0.682000000    -3.584000000
C    -3.049000000    -1.723000000    -3.275000000
C    -2.264000000    -1.935000000    -4.571000000
H    -2.517000000    -2.943000000    -4.907000000
C    -0.828000000    -1.598000000    -4.542000000
C     0.110000000    -2.620000000    -4.376000000
H    -0.271000000    -3.622000000    -4.194000000
H    -2.699000000    -1.266000000    -5.317000000
C    -3.268000000    -2.891000000    -2.501000000
H    -2.977000000    -3.889000000    -2.818000000
C    -3.984000000    -2.785000000    -1.359000000
C    -4.298000000    -4.004000000    -0.469000000
H    -4.305000000    -4.940000000    -1.032000000
H    -5.313000000    -3.942000000    -0.069000000
C    -3.110000000    -4.089000000     0.499000000
C    -1.995000000    -4.918000000     0.128000000
H    -1.937000000    -5.365000000    -0.862000000
C    -3.144000000    -3.469000000     1.691000000
C    -2.019000000    -3.603000000     2.502000000
H    -1.889000000    -2.979000000     3.382000000
C    -0.855000000    -4.234000000     2.066000000
O     0.179000000    -4.069000000     2.922000000
C     1.113000000    -3.059000000     2.515000000
C     1.713000000    -2.320000000     3.728000000
C     2.911000000    -1.637000000     3.626000000
H     3.508000000    -1.704000000     2.720000000
C     0.946000000    -2.173000000     4.853000000
H    -0.046000000    -2.617000000     4.888000000
O     2.117000000    -3.819000000     1.790000000
H     0.581000000    -2.260000000     1.977000000
C    -0.847000000    -4.981000000     0.867000000
C     0.421000000    -5.645000000     0.290000000
H     0.211000000    -6.433000000    -0.436000000
H     0.942000000    -6.136000000     1.115000000
C     1.284000000    -4.605000000    -0.334000000
C     1.434000000    -4.617000000    -1.714000000
H     0.671000000    -5.174000000    -2.251000000
C     2.109000000    -3.721000000     0.422000000
C     3.034000000    -3.014000000    -0.238000000
H     3.683000000    -2.418000000     0.398000000
C     3.150000000    -2.965000000    -1.580000000
O     4.056000000    -2.034000000    -2.180000000
C     3.434000000    -0.757000000    -2.498000000
C     4.404000000     0.337000000    -2.138000000
C     5.210000000     0.131000000    -1.036000000
H     5.343000000    -0.845000000    -0.576000000
C     4.209000000     1.639000000    -2.617000000
H     3.392000000     1.843000000    -3.304000000
O     3.142000000    -0.657000000    -3.920000000
H     2.501000000    -0.598000000    -1.938000000
C     2.304000000    -3.728000000    -2.413000000
C     2.370000000    -3.505000000    -3.942000000
H     1.983000000    -4.323000000    -4.554000000
H     3.402000000    -3.355000000    -4.267000000
C     1.459000000    -2.401000000    -4.214000000
C     1.892000000    -1.103000000    -4.251000000
C     0.995000000    -0.043000000    -4.496000000
H     1.346000000     0.986000000    -4.495000000
C    -0.359000000    -0.353000000    -4.716000000
O    -1.169000000     0.736000000    -4.830000000
C    -1.805000000     1.105000000    -3.544000000
H    -1.206000000     0.660000000    -2.736000000
C    -1.751000000     2.611000000    -3.257000000
C    -2.785000000     3.291000000    -2.558000000
H    -3.702000000     2.766000000    -2.302000000
C    -0.639000000     3.368000000    -3.571000000
H     0.162000000     3.031000000    -4.224000000
C    -0.541000000     4.694000000    -3.246000000
O     0.470000000     5.528000000    -3.831000000
C    -1.580000000     5.416000000    -2.667000000
H    -1.511000000     6.490000000    -2.516000000
C    -2.747000000     4.653000000    -2.378000000
O    -3.774000000     5.405000000    -1.770000000
C    -4.694000000     4.826000000    -0.961000000
C    -4.388000000     4.426000000     0.389000000
H    -3.422000000     4.566000000     0.868000000
C    -5.913000000     4.554000000    -1.517000000
H    -6.143000000     4.950000000    -2.503000000
C    -6.924000000     3.947000000    -0.742000000
H    -7.873000000     3.782000000    -1.246000000
C    -6.630000000     3.566000000     0.552000000
H    -7.361000000     3.102000000     1.209000000
C    -5.420000000     3.802000000     1.172000000
O    -5.220000000     3.410000000     2.457000000
C    -4.783000000     2.154000000     2.798000000
C    -4.574000000     1.977000000     4.127000000
H    -4.546000000     2.827000000     4.803000000
C    -4.101000000     0.802000000     4.592000000
O    -3.659000000     0.751000000     5.934000000
C    -2.353000000     0.904000000     6.275000000
C    -1.522000000    -0.274000000     6.377000000
H    -1.793000000    -1.173000000     5.831000000
C    -1.908000000     2.103000000     6.766000000
H    -2.577000000     2.957000000     6.698000000
C    -0.647000000     2.252000000     7.383000000
H    -0.463000000     3.187000000     7.906000000
C     0.166000000     1.141000000     7.503000000
H     1.128000000     1.196000000     8.006000000
C    -0.305000000    -0.107000000     7.047000000
O     0.576000000    -1.210000000     7.032000000
C     1.359000000    -1.403000000     5.914000000
C     2.548000000    -0.778000000     5.849000000
H     2.800000000    -0.050000000     6.615000000
C     3.357000000    -0.872000000     4.735000000
O     4.315000000     0.125000000     4.470000000
C     5.336000000    -0.127000000     3.606000000
C     5.617000000     0.682000000     2.467000000
H     5.177000000     1.674000000     2.404000000
C     6.131000000    -1.282000000     3.796000000
H     5.877000000    -1.928000000     4.633000000
C     7.161000000    -1.598000000     2.969000000
H     7.780000000    -2.443000000     3.259000000
C     7.331000000    -0.912000000     1.752000000
H     8.144000000    -1.190000000     1.086000000
C     6.616000000     0.263000000     1.516000000
O     6.939000000     0.991000000     0.406000000
C     5.997000000     1.181000000    -0.548000000
C     5.903000000     2.440000000    -1.166000000
H     6.455000000     3.319000000    -0.843000000
C     5.037000000     2.672000000    -2.220000000
O     4.903000000     3.930000000    -2.789000000
C     3.919000000     4.249000000    -3.675000000
C     4.316000000     4.175000000    -5.021000000
H     5.331000000     3.927000000    -5.323000000
C     3.405000000     4.671000000    -5.953000000
H     3.713000000     4.668000000    -6.995000000
C     2.120000000     5.126000000    -5.631000000
H     1.445000000     5.324000000    -6.460000000
C     1.723000000     5.128000000    -4.235000000
C     2.674000000     4.783000000    -3.270000000
H     2.488000000     5.007000000    -2.222000000
C    -0.699000000     2.090000000     0.516000000
H    -1.612000000     2.675000000     0.598000000
C    -0.895000000     0.876000000    -0.076000000
H    -1.917000000     0.700000000    -0.400000000
C     0.098000000    -0.009000000    -0.152000000
C    -0.141000000    -1.305000000    -0.935000000
H    -0.043000000    -2.175000000    -0.283000000
H    -1.184000000    -1.183000000    -1.232000000
H     0.453000000    -1.316000000    -1.851000000
C     1.363000000     0.292000000     0.418000000
H     2.108000000    -0.500000000     0.400000000
C     1.607000000     1.492000000     0.969000000
H     2.544000000     1.806000000     1.420000000
C     0.559000000     2.390000000     1.110000000
C     0.765000000     3.711000000     1.784000000
O     1.835000000     4.091000000     2.190000000
O    -0.200000000     4.298000000     2.131000000
O     2.182000000     3.665000000     7.431000000
H     1.984000000     3.390000000     6.535000000
H     2.361000000     4.602000000     7.359000000
O    -3.914000000     8.641000000    -0.031000000
H    -3.360000000     8.008000000    -0.488000000
H    -4.217000000     8.175000000     0.748000000
O     1.319000000     8.023000000    -3.359000000
H     1.341000000     7.136000000    -3.718000000
H     1.758000000     8.559000000    -4.020000000
O     0.900000000     6.500000000     4.173000000
H     1.021000000     5.832000000     3.498000000
H     1.514000000     7.194000000     3.936000000
O     1.343000000     2.952000000     4.724000000
H     0.387000000     2.960000000     4.679000000
H     1.625000000     3.229000000     3.852000000
O     3.312000000     6.349000000     7.269000000
H     2.528000000     6.864000000     7.080000000
H     3.928000000     6.978000000     7.645000000
O    -2.671000000     7.904000000     4.166000000
H    -2.495000000     7.680000000     3.252000000
H    -2.677000000     7.062000000     4.622000000
O    -3.947000000     5.136000000     6.187000000
H    -3.262000000     4.943000000     5.547000000
H    -3.525000000     5.716000000     6.821000000
O     4.849000000     7.177000000     1.633000000
H     5.648000000     6.741000000     1.337000000
H     4.172000000     6.871000000     1.029000000
O     0.124000000     6.883000000     6.587000000
H     0.500000000     6.467000000     5.812000000
H     0.738000000     7.585000000     6.804000000
O    -2.560000000     4.747000000     3.844000000
H    -3.314000000     5.008000000     3.315000000
H    -1.815000000     4.813000000     3.248000000
O     4.271000000     7.539000000    -1.230000000
H     3.900000000     8.349000000    -1.579000000
H     3.545000000     7.123000000    -0.765000000
O     5.090000000     7.154000000     5.056000000
H     4.686000000     6.348000000     5.376000000
H     4.361000000     7.767000000     4.964000000
O     3.450000000     8.504000000     3.558000000
H     3.783000000     9.245000000     4.063000000
H     4.135000000     8.326000000     2.914000000
O     5.100000000     2.924000000     5.069000000
H     4.617000000     3.614000000     4.615000000
H     4.529000000     2.157000000     5.017000000
O     0.602000000     8.362000000     0.178000000
H    -0.225000000     8.842000000     0.134000000
H     1.228000000     8.921000000    -0.284000000
O    -1.330000000     6.714000000     1.451000000
H    -0.608000000     7.222000000     1.080000000
H    -0.985000000     5.824000000     1.523000000
O     3.858000000     4.844000000     3.726000000
H     4.167000000     5.664000000     3.343000000
H     3.185000000     4.535000000     3.119000000
O     2.365000000     6.072000000     0.075000000
H     1.780000000     6.808000000     0.251000000
H     2.140000000     5.422000000     0.740000000
