218
-1456.83037
C    -4.553000000    -1.471000000     2.583000000
H    -4.807000000    -2.528000000     2.585000000
C    -4.209000000    -0.715000000     1.477000000
C    -4.028000000     0.693000000     1.620000000
H    -3.672000000     1.235000000     0.747000000
C    -3.946000000    -1.312000000     0.110000000
O    -4.211000000    -2.750000000     0.143000000
H    -2.882000000    -1.309000000    -0.170000000
O    -4.848000000    -0.687000000    -0.919000000
C    -4.193000000    -0.490000000    -2.184000000
C    -3.832000000     0.820000000    -2.534000000
H    -4.114000000     1.640000000    -1.879000000
C    -2.822000000     1.096000000    -3.475000000
O    -2.374000000     2.362000000    -3.580000000
C    -2.447000000     0.060000000    -4.345000000
C    -1.569000000     0.409000000    -5.521000000
H    -1.799000000    -0.192000000    -6.404000000
C    -0.146000000     0.413000000    -5.160000000
C     0.565000000    -0.862000000    -5.175000000
H     0.147000000    -1.755000000    -5.632000000
H    -1.809000000     1.407000000    -5.894000000
C    -2.751000000    -1.263000000    -4.008000000
H    -2.355000000    -2.055000000    -4.638000000
C    -3.608000000    -1.563000000    -2.905000000
C    -3.856000000    -2.979000000    -2.592000000
H    -3.838000000    -3.593000000    -3.495000000
H    -4.883000000    -3.090000000    -2.238000000
C    -2.924000000    -3.668000000    -1.669000000
C    -1.831000000    -4.410000000    -2.108000000
H    -1.498000000    -4.475000000    -3.141000000
C    -3.278000000    -3.602000000    -0.337000000
C    -2.521000000    -4.268000000     0.623000000
H    -2.828000000    -4.252000000     1.666000000
C    -1.377000000    -4.989000000     0.256000000
O    -0.379000000    -5.297000000     1.214000000
C     0.612000000    -4.201000000     1.450000000
C     0.966000000    -3.727000000     2.917000000
C     2.119000000    -2.950000000     3.089000000
H     2.794000000    -2.763000000     2.258000000
C    -0.004000000    -3.797000000     3.934000000
H    -0.898000000    -4.393000000     3.766000000
O     1.828000000    -4.471000000     0.737000000
H     0.134000000    -3.316000000     1.006000000
C    -1.034000000    -5.000000000    -1.111000000
C     0.347000000    -5.655000000    -1.586000000
H     0.264000000    -6.225000000    -2.514000000
H     0.607000000    -6.400000000    -0.832000000
C     1.345000000    -4.519000000    -1.727000000
C     1.541000000    -3.912000000    -2.971000000
H     1.017000000    -4.273000000    -3.852000000
C     2.024000000    -4.033000000    -0.577000000
C     2.959000000    -3.020000000    -0.808000000
H     3.561000000    -2.760000000     0.059000000
C     3.242000000    -2.482000000    -2.062000000
O     4.201000000    -1.550000000    -2.161000000
C     3.739000000    -0.169000000    -2.144000000
C     4.529000000     0.746000000    -1.198000000
C     5.251000000     0.102000000    -0.216000000
H     5.637000000    -0.911000000    -0.295000000
C     4.220000000     2.146000000    -1.150000000
H     3.543000000     2.535000000    -1.906000000
O     3.621000000     0.398000000    -3.482000000
H     2.701000000    -0.157000000    -1.780000000
C     2.487000000    -2.909000000    -3.171000000
C     2.572000000    -2.278000000    -4.577000000
H     2.165000000    -2.934000000    -5.350000000
H     3.602000000    -2.123000000    -4.903000000
C     1.830000000    -0.960000000    -4.619000000
C     2.438000000     0.217000000    -4.167000000
C     1.756000000     1.392000000    -4.130000000
H     2.314000000     2.256000000    -3.778000000
C     0.513000000     1.545000000    -4.725000000
O    -0.114000000     2.762000000    -4.479000000
C    -0.985000000     2.776000000    -3.280000000
H    -0.517000000     2.011000000    -2.644000000
C    -1.055000000     4.208000000    -2.607000000
C    -2.140000000     4.567000000    -1.840000000
H    -3.008000000     3.927000000    -1.699000000
C     0.104000000     5.003000000    -2.648000000
H     0.981000000     4.588000000    -3.139000000
C     0.115000000     6.227000000    -2.005000000
O     1.204000000     7.000000000    -2.079000000
C    -0.918000000     6.474000000    -1.110000000
H    -0.882000000     7.423000000    -0.580000000
C    -2.052000000     5.716000000    -1.049000000
O    -3.146000000     6.174000000    -0.284000000
C    -4.037000000     5.239000000     0.323000000
C    -3.628000000     4.474000000     1.364000000
H    -2.680000000     4.729000000     1.831000000
C    -5.297000000     5.062000000    -0.256000000
H    -5.598000000     5.681000000    -1.098000000
C    -6.105000000     4.048000000     0.196000000
H    -7.061000000     3.886000000    -0.295000000
C    -5.679000000     3.326000000     1.301000000
H    -6.326000000     2.490000000     1.555000000
C    -4.457000000     3.570000000     1.947000000
O    -3.993000000     2.698000000     2.882000000
C    -4.088000000     1.306000000     2.818000000
C    -4.420000000     0.601000000     3.959000000
H    -4.487000000     1.055000000     4.944000000
C    -4.585000000    -0.834000000     3.828000000
O    -4.880000000    -1.535000000     4.998000000
C    -3.958000000    -1.809000000     5.975000000
C    -2.727000000    -2.418000000     5.637000000
H    -2.413000000    -2.743000000     4.648000000
C    -4.175000000    -1.410000000     7.305000000
H    -5.059000000    -0.864000000     7.625000000
C    -3.192000000    -1.599000000     8.274000000
H    -3.354000000    -1.463000000     9.340000000
C    -2.019000000    -2.307000000     7.923000000
H    -1.202000000    -2.444000000     8.627000000
C    -1.755000000    -2.622000000     6.602000000
O    -0.638000000    -3.365000000     6.253000000
C     0.210000000    -3.163000000     5.150000000
C     1.408000000    -2.415000000     5.370000000
H     1.590000000    -2.015000000     6.364000000
C     2.315000000    -2.272000000     4.318000000
O     3.290000000    -1.376000000     4.512000000
C     4.470000000    -1.599000000     3.860000000
C     5.046000000    -0.500000000     3.094000000
H     4.524000000     0.453000000     3.113000000
C     5.141000000    -2.789000000     3.913000000
H     4.734000000    -3.575000000     4.544000000
C     6.327000000    -3.032000000     3.168000000
H     6.815000000    -4.003000000     3.166000000
C     6.826000000    -1.946000000     2.379000000
H     7.642000000    -2.060000000     1.669000000
C     6.304000000    -0.648000000     2.479000000
O     6.739000000     0.296000000     1.542000000
C     5.902000000     0.875000000     0.707000000
C     5.624000000     2.231000000     0.775000000
H     6.017000000     2.898000000     1.537000000
C     4.739000000     2.849000000    -0.139000000
O     4.395000000     4.177000000     0.120000000
C     4.089000000     5.091000000    -0.865000000
C     5.001000000     5.307000000    -1.918000000
H     5.992000000     4.859000000    -1.907000000
C     4.665000000     6.256000000    -2.909000000
H     5.368000000     6.452000000    -3.714000000
C     3.394000000     6.817000000    -3.001000000
H     3.218000000     7.613000000    -3.721000000
C     2.467000000     6.485000000    -1.994000000
C     2.839000000     5.652000000    -0.961000000
H     2.121000000     5.496000000    -0.160000000
C    -0.655000000     2.489000000     1.159000000
H    -1.440000000     3.200000000     1.408000000
C    -0.953000000     1.519000000     0.235000000
H    -1.875000000     1.600000000    -0.334000000
C    -0.114000000     0.443000000    -0.019000000
C    -0.311000000    -0.365000000    -1.272000000
H     0.339000000    -0.032000000    -2.084000000
H    -0.026000000    -1.403000000    -1.088000000
H    -1.331000000    -0.399000000    -1.661000000
C     1.165000000     0.388000000     0.708000000
H     1.922000000    -0.371000000     0.527000000
C     1.524000000     1.423000000     1.566000000
H     2.540000000     1.398000000     1.952000000
C     0.549000000     2.472000000     1.845000000
C     0.967000000     3.583000000     2.866000000
O     2.070000000     3.576000000     3.338000000
O     0.198000000     4.432000000     3.199000000
O    -1.226000000     7.011000000     6.691000000
H    -1.290000000     7.065000000     7.644000000
H    -2.063000000     6.638000000     6.415000000
O    -1.568000000     4.193000000     5.100000000
H    -2.309000000     4.704000000     4.774000000
H    -0.872000000     4.347000000     4.461000000
O     2.834000000     4.428000000     8.612000000
H     2.821000000     5.312000000     8.977000000
H     2.608000000     4.546000000     7.689000000
O     6.093000000     6.420000000     1.223000000
H     5.461000000     5.747000000     0.969000000
H     6.616000000     6.010000000     1.912000000
O     2.629000000     1.284000000     6.069000000
H     2.182000000     2.073000000     6.376000000
H     2.062000000     0.941000000     5.379000000
O     4.353000000     3.022000000     4.419000000
H     4.047000000     2.275000000     4.933000000
H     3.606000000     3.254000000     3.866000000
O     0.441000000     8.190000000     4.716000000
H     1.375000000     8.106000000     4.905000000
H     0.023000000     7.543000000     5.284000000
O    -2.372000000     2.665000000     7.362000000
H    -1.966000000     3.178000000     6.662000000
H    -3.303000000     2.881000000     7.308000000
O    -0.152000000     1.230000000     4.808000000
H    -0.218000000     0.896000000     3.913000000
H    -0.716000000     2.004000000     4.817000000
O    -3.949000000     5.825000000     4.790000000
H    -3.999000000     6.486000000     4.099000000
H    -4.790000000     5.370000000     4.747000000
O     2.707000000     7.981000000     1.496000000
H     1.760000000     7.863000000     1.575000000
H     3.080000000     7.336000000     2.097000000
O     1.897000000     4.533000000     5.803000000
H     0.993000000     4.838000000     5.887000000
H     1.981000000     4.284000000     4.883000000
O     6.472000000     4.398000000     3.507000000
H     7.350000000     4.187000000     3.824000000
H     5.884000000     3.976000000     4.134000000
O     4.408000000     0.443000000     7.813000000
H     3.914000000     0.797000000     7.073000000
H     4.528000000    -0.483000000     7.598000000
O     3.134000000     7.269000000     5.416000000
H     3.002000000     6.553000000     6.038000000
H     3.486000000     6.844000000     4.634000000
O    -2.060000000     8.681000000     1.649000000
H    -1.371000000     8.024000000     1.745000000
H    -1.590000000     9.512000000     1.571000000
O    -0.677000000     0.580000000     7.609000000
H    -1.108000000     1.434000000     7.643000000
H    -0.728000000     0.323000000     6.688000000
O    -0.078000000     7.049000000     2.390000000
H    -0.058000000     7.565000000     3.196000000
H     0.297000000     6.204000000     2.638000000
O     3.747000000     5.783000000     3.186000000
H     4.573000000     5.312000000     3.077000000
H     3.075000000     5.103000000     3.134000000
