218
-1450.68419
C    -4.466000000    -0.835000000     2.694000000
H    -4.582000000    -1.910000000     2.805000000
C    -4.204000000    -0.313000000     1.434000000
C    -4.057000000     1.089000000     1.232000000
H    -3.959000000     1.388000000     0.191000000
C    -4.008000000    -1.215000000     0.213000000
O    -4.132000000    -2.566000000     0.474000000
H    -2.968000000    -1.070000000    -0.115000000
O    -4.697000000    -0.925000000    -0.884000000
C    -4.138000000    -0.861000000    -2.179000000
C    -3.898000000     0.400000000    -2.735000000
H    -4.400000000     1.313000000    -2.425000000
C    -3.083000000     0.522000000    -3.856000000
O    -2.690000000     1.869000000    -4.149000000
C    -2.439000000    -0.588000000    -4.434000000
C    -1.440000000    -0.454000000    -5.569000000
H    -1.520000000    -1.358000000    -6.176000000
C    -0.001000000    -0.250000000    -4.998000000
C     0.795000000    -1.354000000    -4.844000000
H     0.461000000    -2.341000000    -5.154000000
H    -1.710000000     0.319000000    -6.291000000
C    -2.705000000    -1.822000000    -3.913000000
H    -2.202000000    -2.678000000    -4.356000000
C    -3.600000000    -2.000000000    -2.817000000
C    -3.941000000    -3.379000000    -2.368000000
H    -3.852000000    -4.097000000    -3.186000000
H    -4.950000000    -3.520000000    -1.976000000
C    -2.932000000    -3.832000000    -1.281000000
C    -1.840000000    -4.549000000    -1.651000000
H    -1.625000000    -4.905000000    -2.655000000
C    -3.053000000    -3.375000000     0.033000000
C    -2.102000000    -3.792000000     0.989000000
H    -2.166000000    -3.433000000     2.013000000
C    -1.071000000    -4.602000000     0.604000000
O    -0.213000000    -4.965000000     1.590000000
C     0.896000000    -4.131000000     1.733000000
C     1.148000000    -3.605000000     3.176000000
C     2.268000000    -2.815000000     3.405000000
H     3.004000000    -2.663000000     2.619000000
C     0.123000000    -3.620000000     4.181000000
H    -0.765000000    -4.236000000     4.060000000
O     2.108000000    -4.733000000     1.026000000
H     0.722000000    -3.172000000     1.224000000
C    -0.906000000    -5.014000000    -0.717000000
C     0.284000000    -5.762000000    -1.114000000
H     0.091000000    -6.306000000    -2.040000000
H     0.450000000    -6.519000000    -0.344000000
C     1.405000000    -4.714000000    -1.242000000
C     1.580000000    -4.142000000    -2.541000000
H     1.019000000    -4.539000000    -3.383000000
C     2.206000000    -4.243000000    -0.225000000
C     3.107000000    -3.240000000    -0.397000000
H     3.594000000    -2.859000000     0.497000000
C     3.403000000    -2.761000000    -1.664000000
O     4.253000000    -1.685000000    -1.720000000
C     3.661000000    -0.350000000    -1.722000000
C     4.447000000     0.615000000    -0.843000000
C     5.239000000     0.139000000     0.249000000
H     5.432000000    -0.918000000     0.413000000
C     4.348000000     2.012000000    -1.058000000
H     3.684000000     2.448000000    -1.801000000
O     3.631000000     0.165000000    -3.030000000
H     2.651000000    -0.394000000    -1.288000000
C     2.602000000    -3.163000000    -2.706000000
C     2.935000000    -2.537000000    -4.078000000
H     2.682000000    -3.258000000    -4.858000000
H     4.018000000    -2.430000000    -4.166000000
C     2.132000000    -1.238000000    -4.334000000
C     2.523000000     0.032000000    -3.839000000
C     1.681000000     1.128000000    -4.017000000
H     1.950000000     2.104000000    -3.620000000
C     0.439000000     1.002000000    -4.579000000
O    -0.372000000     2.126000000    -4.609000000
C    -1.420000000     2.365000000    -3.627000000
H    -1.087000000     1.742000000    -2.783000000
C    -1.494000000     3.737000000    -3.140000000
C    -2.666000000     4.424000000    -2.863000000
H    -3.619000000     4.009000000    -3.183000000
C    -0.298000000     4.373000000    -2.811000000
H     0.647000000     3.918000000    -3.099000000
C    -0.313000000     5.599000000    -2.181000000
O     0.841000000     6.180000000    -1.795000000
C    -1.491000000     6.261000000    -1.864000000
H    -1.480000000     7.207000000    -1.328000000
C    -2.682000000     5.621000000    -2.126000000
O    -3.867000000     6.195000000    -1.716000000
C    -4.722000000     5.498000000    -0.878000000
C    -4.203000000     4.962000000     0.311000000
H    -3.188000000     5.192000000     0.625000000
C    -5.983000000     5.169000000    -1.298000000
H    -6.446000000     5.650000000    -2.156000000
C    -6.679000000     4.187000000    -0.576000000
H    -7.728000000     3.934000000    -0.712000000
C    -6.110000000     3.602000000     0.591000000
H    -6.605000000     2.737000000     1.025000000
C    -4.840000000     3.927000000     1.002000000
O    -4.329000000     3.313000000     2.145000000
C    -4.163000000     1.965000000     2.328000000
C    -4.394000000     1.424000000     3.546000000
H    -4.507000000     2.034000000     4.438000000
C    -4.520000000     0.050000000     3.733000000
O    -4.605000000    -0.418000000     5.105000000
C    -3.563000000    -0.697000000     5.980000000
C    -2.557000000    -1.588000000     5.625000000
H    -2.574000000    -1.895000000     4.582000000
C    -3.525000000    -0.115000000     7.243000000
H    -4.164000000     0.725000000     7.505000000
C    -2.592000000    -0.511000000     8.169000000
H    -2.542000000    -0.116000000     9.180000000
C    -1.663000000    -1.498000000     7.809000000
H    -0.986000000    -1.874000000     8.573000000
C    -1.576000000    -1.960000000     6.516000000
O    -0.667000000    -2.957000000     6.361000000
C     0.306000000    -2.995000000     5.388000000
C     1.556000000    -2.299000000     5.621000000
H     1.677000000    -1.695000000     6.516000000
C     2.538000000    -2.274000000     4.660000000
O     3.616000000    -1.483000000     4.985000000
C     4.768000000    -1.568000000     4.365000000
C     5.232000000    -0.442000000     3.607000000
H     4.595000000     0.420000000     3.423000000
C     5.627000000    -2.733000000     4.297000000
H     5.323000000    -3.637000000     4.818000000
C     6.855000000    -2.743000000     3.591000000
H     7.466000000    -3.632000000     3.724000000
C     7.253000000    -1.638000000     2.897000000
H     8.182000000    -1.666000000     2.332000000
C     6.445000000    -0.468000000     2.873000000
O     6.777000000     0.570000000     2.051000000
C     6.057000000     1.073000000     0.964000000
C     5.958000000     2.424000000     0.682000000
H     6.457000000     3.035000000     1.430000000
C     5.140000000     2.917000000    -0.308000000
O     4.905000000     4.297000000    -0.316000000
C     4.192000000     4.876000000    -1.279000000
C     4.789000000     5.259000000    -2.468000000
H     5.844000000     5.028000000    -2.588000000
C     4.043000000     5.818000000    -3.477000000
H     4.534000000     6.178000000    -4.377000000
C     2.696000000     6.176000000    -3.248000000
H     2.030000000     6.608000000    -3.990000000
C     2.062000000     5.702000000    -2.034000000
C     2.846000000     5.082000000    -1.087000000
H     2.311000000     4.772000000    -0.192000000
C     0.150000000     2.529000000     0.867000000
H    -0.335000000     3.501000000     0.847000000
C    -0.364000000     1.481000000     0.113000000
H    -1.288000000     1.579000000    -0.451000000
C     0.213000000     0.236000000     0.038000000
C    -0.290000000    -0.935000000    -0.806000000
H    -0.398000000    -1.803000000    -0.152000000
H    -1.307000000    -0.850000000    -1.194000000
H     0.311000000    -1.123000000    -1.698000000
C     1.354000000    -0.002000000     0.732000000
H     1.884000000    -0.949000000     0.665000000
C     1.923000000     1.055000000     1.446000000
H     2.838000000     0.866000000     2.001000000
C     1.333000000     2.306000000     1.600000000
C     1.902000000     3.333000000     2.509000000
O     3.015000000     3.160000000     2.983000000
O     1.318000000     4.381000000     2.694000000
O    -0.837000000     6.679000000     5.196000000
H    -1.104000000     6.447000000     6.085000000
H    -1.559000000     6.380000000     4.643000000
O    -1.409000000     3.289000000     4.403000000
H    -2.018000000     3.941000000     4.057000000
H    -0.543000000     3.616000000     4.160000000
O     0.619000000     4.607000000     8.189000000
H     0.774000000     5.543000000     8.061000000
H     0.769000000     4.219000000     7.328000000
O     7.440000000     5.327000000    -0.045000000
H     6.501000000     5.260000000     0.125000000
H     7.850000000     4.859000000     0.683000000
O     7.811000000     2.941000000     4.007000000
H     7.460000000     3.708000000     4.459000000
H     7.346000000     2.200000000     4.396000000
O     1.384000000     1.547000000     5.325000000
H     1.217000000     1.123000000     6.167000000
H     0.826000000     1.077000000     4.706000000
O     4.133000000     2.722000000     5.297000000
H     3.575000000     1.955000000     5.427000000
H     3.877000000     3.062000000     4.439000000
O     0.834000000     8.740000000     5.529000000
H     1.582000000     8.143000000     5.523000000
H     0.073000000     8.172000000     5.412000000
O    -1.355000000     2.143000000     6.815000000
H    -0.522000000     1.693000000     6.950000000
H    -1.399000000     2.288000000     5.870000000
O     6.383000000     4.666000000     5.360000000
H     6.478000000     5.298000000     6.072000000
H     5.560000000     4.214000000     5.548000000
O    -0.677000000     0.417000000     3.669000000
H    -0.284000000     0.707000000     2.846000000
H    -1.588000000     0.705000000     3.615000000
O    -3.099000000     5.684000000     4.017000000
H    -3.697000000     5.515000000     3.289000000
H    -3.669000000     5.751000000     4.784000000
O     3.698000000     7.803000000    -0.317000000
H     2.836000000     7.391000000    -0.251000000
H     4.129000000     7.591000000     0.511000000
O     1.251000000     4.322000000     5.448000000
H     1.494000000     3.406000000     5.309000000
H     1.157000000     4.681000000     4.565000000
O     6.761000000     5.584000000     2.611000000
H     7.585000000     6.057000000     2.727000000
H     6.580000000     5.203000000     3.471000000
O     2.778000000     6.663000000     5.683000000
H     2.186000000     5.911000000     5.698000000
H     3.261000000     6.572000000     4.862000000
O     0.528000000     9.071000000     0.253000000
H     0.956000000     8.434000000     0.826000000
H     1.055000000     9.865000000     0.342000000
O     1.290000000     7.186000000     2.070000000
H     1.945000000     6.616000000     2.474000000
H     0.493000000     7.033000000     2.577000000
O     4.040000000     6.022000000     2.581000000
H     4.914000000     5.762000000     2.289000000
H     3.540000000     5.206000000     2.596000000
