218
-1471.38102
C    -4.636000000    -0.270000000     2.728000000
H    -4.608000000    -1.354000000     2.796000000
C    -4.331000000     0.427000000     1.559000000
C    -4.264000000     1.855000000     1.651000000
H    -3.928000000     2.488000000     0.834000000
C    -4.141000000    -0.302000000     0.212000000
O    -4.601000000    -1.675000000     0.268000000
H    -3.082000000    -0.454000000    -0.043000000
O    -4.875000000     0.387000000    -0.853000000
C    -4.206000000     0.508000000    -2.031000000
C    -3.540000000     1.727000000    -2.254000000
H    -3.615000000     2.567000000    -1.569000000
C    -2.749000000     2.004000000    -3.313000000
O    -1.942000000     3.166000000    -3.337000000
C    -2.514000000     0.911000000    -4.221000000
C    -1.447000000     1.003000000    -5.312000000
H    -1.717000000     0.246000000    -6.051000000
C    -0.050000000     0.655000000    -4.843000000
C     0.452000000    -0.715000000    -4.914000000
H    -0.170000000    -1.516000000    -5.305000000
H    -1.510000000     2.030000000    -5.679000000
C    -3.090000000    -0.334000000    -3.956000000
H    -2.857000000    -1.158000000    -4.627000000
C    -3.995000000    -0.542000000    -2.898000000
C    -4.500000000    -1.968000000    -2.679000000
H    -4.524000000    -2.483000000    -3.641000000
H    -5.514000000    -1.991000000    -2.274000000
C    -3.730000000    -2.834000000    -1.720000000
C    -2.710000000    -3.767000000    -2.232000000
H    -2.509000000    -3.840000000    -3.298000000
C    -3.817000000    -2.637000000    -0.305000000
C    -2.982000000    -3.345000000     0.531000000
H    -3.018000000    -3.134000000     1.596000000
C    -2.048000000    -4.248000000     0.066000000
O    -1.157000000    -4.793000000     0.990000000
C     0.104000000    -4.120000000     1.063000000
C     0.514000000    -3.984000000     2.549000000
C     1.713000000    -4.450000000     3.014000000
H     2.419000000    -4.939000000     2.348000000
C    -0.342000000    -3.428000000     3.437000000
H    -1.299000000    -3.030000000     3.109000000
O     1.151000000    -4.821000000     0.372000000
H    -0.113000000    -3.143000000     0.607000000
C    -1.871000000    -4.436000000    -1.307000000
C    -0.718000000    -5.319000000    -1.810000000
H    -1.047000000    -5.849000000    -2.707000000
H    -0.607000000    -6.211000000    -1.189000000
C     0.624000000    -4.575000000    -1.988000000
C     0.880000000    -3.869000000    -3.197000000
H     0.129000000    -4.068000000    -3.957000000
C     1.448000000    -4.391000000    -0.904000000
C     2.672000000    -3.740000000    -1.014000000
H     3.304000000    -3.700000000    -0.130000000
C     2.959000000    -3.039000000    -2.195000000
O     4.005000000    -2.144000000    -2.169000000
C     3.621000000    -0.803000000    -2.070000000
C     4.399000000    -0.100000000    -0.950000000
C     4.677000000    -0.797000000     0.218000000
H     4.192000000    -1.755000000     0.391000000
C     4.775000000     1.262000000    -1.056000000
H     4.636000000     1.764000000    -2.010000000
O     3.759000000    -0.230000000    -3.358000000
H     2.597000000    -0.710000000    -1.678000000
C     2.082000000    -3.117000000    -3.297000000
C     2.290000000    -2.372000000    -4.626000000
H     1.889000000    -2.929000000    -5.476000000
H     3.346000000    -2.297000000    -4.890000000
C     1.772000000    -0.973000000    -4.532000000
C     2.545000000     0.059000000    -3.952000000
C     2.040000000     1.334000000    -3.793000000
H     2.698000000     2.023000000    -3.269000000
C     0.811000000     1.619000000    -4.299000000
O     0.330000000     2.888000000    -4.000000000
C    -0.531000000     3.134000000    -2.892000000
H    -0.459000000     2.290000000    -2.189000000
C    -0.260000000     4.433000000    -2.126000000
C    -1.276000000     5.087000000    -1.337000000
H    -2.258000000     4.622000000    -1.308000000
C     1.070000000     4.807000000    -1.991000000
H     1.911000000     4.396000000    -2.545000000
C     1.321000000     5.976000000    -1.240000000
O     2.572000000     6.521000000    -1.238000000
C     0.320000000     6.653000000    -0.565000000
H     0.467000000     7.518000000     0.077000000
C    -0.968000000     6.253000000    -0.687000000
O    -2.026000000     6.921000000     0.012000000
C    -3.140000000     6.276000000     0.590000000
C    -3.084000000     5.160000000     1.471000000
H    -2.154000000     4.755000000     1.863000000
C    -4.411000000     6.848000000     0.275000000
H    -4.499000000     7.796000000    -0.249000000
C    -5.601000000     6.345000000     0.830000000
H    -6.551000000     6.839000000     0.641000000
C    -5.527000000     5.319000000     1.778000000
H    -6.396000000     5.029000000     2.363000000
C    -4.271000000     4.687000000     2.006000000
O    -4.236000000     3.827000000     3.034000000
C    -4.498000000     2.504000000     2.869000000
C    -4.769000000     1.767000000     4.032000000
H    -5.002000000     2.319000000     4.938000000
C    -4.795000000     0.397000000     3.935000000
O    -4.987000000    -0.414000000     5.080000000
C    -4.282000000    -1.497000000     5.432000000
C    -2.891000000    -1.404000000     5.421000000
H    -2.403000000    -0.504000000     5.056000000
C    -4.955000000    -2.714000000     5.695000000
H    -6.035000000    -2.829000000     5.710000000
C    -4.142000000    -3.876000000     5.808000000
H    -4.505000000    -4.884000000     5.986000000
C    -2.749000000    -3.794000000     5.684000000
H    -2.131000000    -4.688000000     5.699000000
C    -2.127000000    -2.573000000     5.611000000
O    -0.763000000    -2.537000000     5.634000000
C     0.047000000    -3.208000000     4.769000000
C     1.302000000    -3.632000000     5.198000000
H     1.576000000    -3.418000000     6.227000000
C     2.123000000    -4.215000000     4.318000000
O     3.460000000    -4.392000000     4.665000000
C     4.508000000    -3.975000000     3.942000000
C     4.508000000    -2.646000000     3.533000000
H     3.777000000    -1.984000000     3.990000000
C     5.418000000    -4.891000000     3.337000000
H     5.306000000    -5.958000000     3.511000000
C     6.349000000    -4.400000000     2.363000000
H     6.987000000    -5.089000000     1.814000000
C     6.297000000    -3.080000000     2.045000000
H     6.999000000    -2.747000000     1.285000000
C     5.487000000    -2.185000000     2.722000000
O     5.590000000    -0.824000000     2.486000000
C     5.420000000    -0.203000000     1.241000000
C     5.633000000     1.129000000     1.201000000
H     6.080000000     1.732000000     1.987000000
C     5.378000000     1.841000000     0.002000000
O     5.786000000     3.145000000     0.015000000
C     5.402000000     4.193000000    -0.794000000
C     6.382000000     4.692000000    -1.649000000
H     7.396000000     4.344000000    -1.826000000
C     6.021000000     5.831000000    -2.403000000
H     6.790000000     6.239000000    -3.053000000
C     4.750000000     6.443000000    -2.242000000
H     4.567000000     7.320000000    -2.858000000
C     3.778000000     5.905000000    -1.439000000
C     4.069000000     4.746000000    -0.704000000
H     3.390000000     4.258000000    -0.010000000
C    -0.852000000     1.819000000     1.810000000
H    -1.540000000     2.598000000     2.129000000
C    -1.062000000     1.348000000     0.534000000
H    -1.815000000     1.841000000    -0.075000000
C    -0.346000000     0.257000000     0.057000000
C    -0.568000000    -0.413000000    -1.260000000
H    -1.341000000     0.164000000    -1.771000000
H     0.313000000    -0.259000000    -1.886000000
H    -0.916000000    -1.438000000    -1.112000000
C     0.566000000    -0.324000000     0.906000000
H     1.175000000    -1.149000000     0.543000000
C     0.795000000     0.201000000     2.216000000
H     1.515000000    -0.239000000     2.901000000
C     0.024000000     1.254000000     2.701000000
C     0.095000000     1.863000000     4.068000000
O     0.784000000     1.397000000     4.967000000
O    -0.556000000     2.905000000     4.331000000
O    -1.102000000     4.439000000     9.413000000
H    -0.488000000     3.745000000     9.655000000
H    -0.903000000     4.625000000     8.495000000
O    -4.000000000     2.025000000     7.415000000
H    -3.670000000     2.900000000     7.212000000
H    -4.823000000     2.181000000     7.878000000
O    -0.651000000     5.860000000     6.527000000
H     0.044000000     5.784000000     5.873000000
H    -1.447000000     5.603000000     6.062000000
O    -2.478000000     3.857000000     5.640000000
H    -2.946000000     4.183000000     4.871000000
H    -1.747000000     3.355000000     5.280000000
O     1.960000000    -1.525000000     8.366000000
H     2.476000000    -0.732000000     8.511000000
H     2.084000000    -2.041000000     9.163000000
O    -0.279000000    -0.476000000     9.274000000
H     0.474000000    -0.916000000     8.879000000
H    -0.305000000     0.382000000     8.850000000
O     3.407000000     1.053000000     8.535000000
H     3.339000000     2.006000000     8.473000000
H     4.038000000     0.814000000     7.855000000
O     2.058000000    -0.673000000     5.728000000
H     1.551000000     0.040000000     5.340000000
H     1.498000000    -1.011000000     6.428000000
O    -0.283000000     7.959000000     3.879000000
H    -1.125000000     7.551000000     4.082000000
H    -0.497000000     8.657000000     3.261000000
O    -0.975000000     1.358000000     7.333000000
H    -0.420000000     1.649000000     6.609000000
H    -1.865000000     1.401000000     6.985000000
O     4.674000000    -0.020000000     6.016000000
H     3.773000000    -0.339000000     5.949000000
H     5.204000000    -0.814000000     6.082000000
O     5.140000000     4.199000000     4.412000000
H     4.736000000     3.662000000     5.094000000
H     4.655000000     3.980000000     3.617000000
O     1.463000000     4.732000000     5.011000000
H     2.105000000     4.092000000     5.318000000
H     0.641000000     4.243000000     4.964000000
O     3.309000000     2.362000000     5.260000000
H     2.444000000     1.952000000     5.256000000
H     3.908000000     1.654000000     5.496000000
O     1.972000000     7.359000000     5.335000000
H     1.951000000     6.405000000     5.254000000
H     1.412000000     7.672000000     4.625000000
O     3.317000000     3.925000000     8.582000000
H     4.085000000     3.942000000     9.154000000
H     3.597000000     4.390000000     7.794000000
O     3.079000000     6.430000000     1.835000000
H     3.323000000     6.563000000     0.919000000
H     2.333000000     5.832000000     1.800000000
O     1.046000000     4.174000000     1.435000000
H     0.461000000     3.541000000     1.018000000
H     1.160000000     3.843000000     2.326000000
O     1.090000000     2.496000000    10.002000000
H     1.810000000     2.906000000     9.524000000
H     1.460000000     1.682000000    10.343000000
