218
-1479.44532
C    -4.313000000    -1.286000000     2.382000000
H    -4.177000000    -2.325000000     2.095000000
C    -4.494000000    -0.359000000     1.330000000
C    -4.850000000     0.978000000     1.649000000
H    -4.988000000     1.745000000     0.891000000
C    -4.231000000    -0.675000000    -0.109000000
O    -4.549000000    -2.049000000    -0.422000000
H    -3.160000000    -0.433000000    -0.160000000
O    -4.911000000     0.181000000    -1.052000000
C    -4.135000000     0.719000000    -2.054000000
C    -3.461000000     1.892000000    -1.789000000
H    -3.760000000     2.520000000    -0.954000000
C    -2.556000000     2.468000000    -2.649000000
O    -2.044000000     3.722000000    -2.341000000
C    -2.248000000     1.781000000    -3.846000000
C    -1.279000000     2.396000000    -4.861000000
H    -1.420000000     1.951000000    -5.848000000
C     0.083000000     2.099000000    -4.375000000
C     0.753000000     0.950000000    -4.935000000
H     0.241000000     0.468000000    -5.764000000
H    -1.488000000     3.464000000    -4.961000000
C    -2.801000000     0.526000000    -4.103000000
H    -2.535000000    -0.100000000    -4.950000000
C    -3.722000000     0.004000000    -3.170000000
C    -4.298000000    -1.370000000    -3.409000000
H    -4.332000000    -1.674000000    -4.457000000
H    -5.348000000    -1.424000000    -3.115000000
C    -3.426000000    -2.372000000    -2.660000000
C    -2.315000000    -2.956000000    -3.317000000
H    -2.082000000    -2.695000000    -4.347000000
C    -3.629000000    -2.603000000    -1.314000000
C    -2.805000000    -3.532000000    -0.675000000
H    -2.744000000    -3.598000000     0.408000000
C    -1.801000000    -4.136000000    -1.362000000
O    -0.885000000    -4.903000000    -0.575000000
C     0.284000000    -4.258000000    -0.148000000
C     0.607000000    -4.594000000     1.282000000
C     1.878000000    -4.178000000     1.803000000
H     2.620000000    -3.742000000     1.139000000
C    -0.363000000    -4.979000000     2.157000000
H    -1.343000000    -5.227000000     1.757000000
O     1.456000000    -4.535000000    -0.939000000
H     0.103000000    -3.175000000    -0.090000000
C    -1.483000000    -3.833000000    -2.679000000
C    -0.277000000    -4.450000000    -3.344000000
H    -0.463000000    -4.652000000    -4.400000000
H    -0.040000000    -5.442000000    -2.955000000
C     0.951000000    -3.596000000    -3.101000000
C     1.338000000    -2.725000000    -4.119000000
H     0.772000000    -2.522000000    -5.025000000
C     1.794000000    -3.700000000    -1.995000000
C     2.949000000    -2.937000000    -1.960000000
H     3.660000000    -2.971000000    -1.138000000
C     3.246000000    -2.026000000    -3.017000000
O     4.349000000    -1.206000000    -2.760000000
C     3.896000000     0.088000000    -2.152000000
C     4.779000000     0.371000000    -0.949000000
C     5.440000000    -0.640000000    -0.165000000
H     5.502000000    -1.698000000    -0.403000000
C     5.060000000     1.707000000    -0.587000000
H     4.638000000     2.516000000    -1.177000000
O     3.946000000     1.158000000    -3.132000000
H     2.867000000     0.027000000    -1.770000000
C     2.343000000    -1.810000000    -4.027000000
C     2.639000000    -0.687000000    -4.989000000
H     2.121000000    -0.941000000    -5.916000000
H     3.701000000    -0.579000000    -5.217000000
C     2.015000000     0.619000000    -4.499000000
C     2.706000000     1.503000000    -3.669000000
C     2.092000000     2.615000000    -3.143000000
H     2.600000000     3.377000000    -2.558000000
C     0.764000000     2.902000000    -3.430000000
O     0.188000000     3.967000000    -2.874000000
C    -0.740000000     3.663000000    -1.776000000
H    -0.597000000     2.605000000    -1.515000000
C    -0.658000000     4.510000000    -0.560000000
C    -1.784000000     4.950000000     0.110000000
H    -2.816000000     4.666000000    -0.081000000
C     0.639000000     4.869000000    -0.142000000
H     1.448000000     4.754000000    -0.858000000
C     0.735000000     5.441000000     1.107000000
O     1.948000000     5.798000000     1.672000000
C    -0.385000000     6.048000000     1.677000000
H    -0.306000000     6.589000000     2.617000000
C    -1.657000000     5.833000000     1.185000000
O    -2.681000000     6.334000000     1.944000000
C    -3.849000000     5.686000000     1.978000000
C    -3.916000000     4.417000000     2.637000000
H    -3.016000000     4.007000000     3.086000000
C    -4.922000000     6.210000000     1.295000000
H    -4.980000000     7.189000000     0.825000000
C    -6.182000000     5.559000000     1.326000000
H    -7.067000000     5.982000000     0.858000000
C    -6.287000000     4.357000000     2.029000000
H    -7.257000000     3.865000000     2.050000000
C    -5.185000000     3.764000000     2.640000000
O    -5.374000000     2.613000000     3.391000000
C    -4.970000000     1.329000000     2.986000000
C    -4.662000000     0.441000000     3.970000000
H    -4.714000000     0.767000000     5.006000000
C    -4.319000000    -0.868000000     3.740000000
O    -3.856000000    -1.658000000     4.770000000
C    -3.684000000    -3.001000000     4.634000000
C    -2.428000000    -3.585000000     4.429000000
H    -1.621000000    -2.875000000     4.266000000
C    -4.759000000    -3.836000000     4.960000000
H    -5.659000000    -3.346000000     5.325000000
C    -4.614000000    -5.225000000     5.008000000
H    -5.410000000    -5.930000000     5.237000000
C    -3.331000000    -5.798000000     4.831000000
H    -3.292000000    -6.873000000     4.675000000
C    -2.220000000    -4.969000000     4.609000000
O    -1.032000000    -5.582000000     4.403000000
C    -0.090000000    -5.040000000     3.561000000
C     1.173000000    -4.874000000     4.074000000
H     1.347000000    -4.887000000     5.147000000
C     2.100000000    -4.340000000     3.183000000
O     3.274000000    -3.824000000     3.631000000
C     4.439000000    -3.817000000     2.867000000
C     5.012000000    -2.570000000     2.576000000
H     4.485000000    -1.675000000     2.896000000
C     5.099000000    -4.995000000     2.569000000
H     4.795000000    -5.954000000     2.982000000
C     6.380000000    -4.887000000     1.972000000
H     6.921000000    -5.813000000     1.797000000
C     6.880000000    -3.635000000     1.576000000
H     7.856000000    -3.502000000     1.114000000
C     6.284000000    -2.445000000     1.954000000
O     6.886000000    -1.226000000     1.664000000
C     6.183000000    -0.294000000     0.988000000
C     6.288000000     1.049000000     1.390000000
H     6.821000000     1.226000000     2.321000000
C     5.742000000     2.054000000     0.621000000
O     5.959000000     3.336000000     1.079000000
C     5.191000000     4.471000000     0.725000000
C     5.818000000     5.505000000     0.003000000
H     6.806000000     5.324000000    -0.412000000
C     5.035000000     6.664000000    -0.154000000
H     5.387000000     7.578000000    -0.626000000
C     3.802000000     6.765000000     0.465000000
H     3.336000000     7.747000000     0.484000000
C     3.185000000     5.764000000     1.076000000
C     3.912000000     4.604000000     1.232000000
H     3.534000000     3.831000000     1.897000000
C    -0.848000000     0.416000000     2.386000000
H    -1.733000000     0.729000000     2.934000000
C    -0.884000000     0.488000000     1.000000000
H    -1.728000000     0.952000000     0.496000000
C     0.101000000    -0.172000000     0.258000000
C     0.234000000    -0.058000000    -1.262000000
H     1.001000000     0.679000000    -1.509000000
H     0.392000000    -1.014000000    -1.766000000
H    -0.653000000     0.352000000    -1.750000000
C     1.204000000    -0.862000000     0.918000000
H     2.042000000    -1.302000000     0.383000000
C     1.253000000    -0.789000000     2.306000000
H     1.997000000    -1.400000000     2.813000000
C     0.253000000    -0.220000000     3.040000000
C     0.339000000    -0.162000000     4.578000000
O     1.217000000    -0.764000000     5.134000000
O    -0.434000000     0.520000000     5.221000000
O     3.153000000     1.575000000     3.793000000
H     2.806000000     0.781000000     4.200000000
H     2.432000000     2.203000000     3.839000000
O     3.133000000     0.001000000    10.028000000
H     3.084000000     0.259000000     9.107000000
H     3.881000000    -0.594000000    10.070000000
O     1.637000000     0.829000000     7.398000000
H     0.947000000     1.463000000     7.201000000
H     1.697000000     0.288000000     6.611000000
O    -1.457000000    -0.754000000     7.542000000
H    -0.770000000    -1.415000000     7.620000000
H    -1.488000000    -0.549000000     6.608000000
O     0.634000000     2.938000000     3.731000000
H    -0.248000000     2.747000000     4.048000000
H     0.571000000     2.851000000     2.780000000
O    -5.870000000    -1.048000000     6.562000000
H    -4.957000000    -1.110000000     6.281000000
H    -5.957000000    -0.157000000     6.901000000
O    -3.893000000     0.258000000     7.628000000
H    -3.912000000     1.204000000     7.483000000
H    -2.964000000     0.029000000     7.587000000
O    -0.474000000    -5.099000000     7.811000000
H    -1.124000000    -5.399000000     7.176000000
H    -0.286000000    -4.197000000     7.553000000
O    -1.292000000     1.759000000     8.967000000
H    -1.833000000     2.348000000     8.441000000
H    -1.439000000     0.894000000     8.585000000
O     2.446000000     4.821000000     4.759000000
H     1.733000000     4.303000000     4.387000000
H     2.546000000     4.486000000     5.650000000
O     3.737000000    -1.491000000     5.475000000
H     2.839000000    -1.166000000     5.408000000
H     3.654000000    -2.441000000     5.394000000
O    -3.312000000    -3.561000000     8.463000000
H    -3.249000000    -2.716000000     8.907000000
H    -3.357000000    -3.340000000     7.533000000
O     0.430000000    -3.021000000     6.585000000
H     0.419000000    -2.232000000     6.043000000
H     1.324000000    -3.354000000     6.504000000
O     4.421000000     2.551000000     7.541000000
H     4.792000000     2.789000000     6.692000000
H     3.474000000     2.589000000     7.408000000
O     6.145000000    -0.266000000     5.277000000
H     6.856000000    -0.872000000     5.071000000
H     5.361000000    -0.814000000     5.294000000
O    -1.913000000     2.491000000     4.892000000
H    -2.782000000     2.485000000     5.292000000
H    -1.582000000     1.603000000     5.024000000
O    -1.346000000     5.102000000     6.067000000
H    -1.618000000     4.389000000     5.489000000
H    -1.929000000     5.827000000     5.844000000
O     5.475000000     2.401000000     4.873000000
H     4.591000000     2.237000000     4.545000000
H     5.839000000     1.530000000     5.025000000
O     2.001000000     4.275000000     7.569000000
H     1.469000000     3.912000000     8.278000000
H     1.901000000     5.223000000     7.656000000
