218
-1483.92972
C    -4.789000000    -0.393000000     2.884000000
H    -4.794000000    -1.446000000     2.614000000
C    -4.632000000     0.522000000     1.844000000
C    -4.606000000     1.839000000     2.139000000
H    -4.495000000     2.576000000     1.348000000
C    -4.457000000     0.080000000     0.355000000
O    -5.037000000    -1.210000000     0.068000000
H    -3.369000000     0.009000000     0.212000000
O    -4.886000000     1.051000000    -0.640000000
C    -4.185000000     1.307000000    -1.802000000
C    -3.452000000     2.486000000    -1.881000000
H    -3.404000000     3.241000000    -1.101000000
C    -2.646000000     2.727000000    -2.957000000
O    -1.820000000     3.838000000    -2.880000000
C    -2.492000000     1.745000000    -3.955000000
C    -1.506000000     1.893000000    -5.115000000
H    -1.807000000     1.363000000    -6.021000000
C    -0.098000000     1.384000000    -4.767000000
C     0.287000000     0.111000000    -5.065000000
H    -0.487000000    -0.612000000    -5.308000000
H    -1.471000000     2.967000000    -5.306000000
C    -3.313000000     0.562000000    -3.917000000
H    -3.203000000    -0.216000000    -4.667000000
C    -4.146000000     0.363000000    -2.801000000
C    -4.794000000    -1.067000000    -2.726000000
H    -4.861000000    -1.465000000    -3.741000000
H    -5.812000000    -0.906000000    -2.364000000
C    -4.106000000    -2.097000000    -1.910000000
C    -3.175000000    -2.959000000    -2.580000000
H    -2.937000000    -2.943000000    -3.640000000
C    -4.171000000    -2.132000000    -0.499000000
C    -3.392000000    -3.010000000     0.258000000
H    -3.459000000    -2.969000000     1.342000000
C    -2.474000000    -3.824000000    -0.390000000
O    -1.590000000    -4.447000000     0.430000000
C    -0.173000000    -3.982000000     0.510000000
C     0.389000000    -4.043000000     1.941000000
C     1.716000000    -4.244000000     2.187000000
H     2.382000000    -4.541000000     1.382000000
C    -0.491000000    -3.718000000     2.968000000
H    -1.506000000    -3.489000000     2.653000000
O     0.627000000    -4.837000000    -0.374000000
H    -0.109000000    -2.990000000     0.038000000
C    -2.406000000    -3.844000000    -1.803000000
C    -1.394000000    -4.744000000    -2.508000000
H    -1.778000000    -4.976000000    -3.503000000
H    -1.417000000    -5.678000000    -1.943000000
C     0.027000000    -4.103000000    -2.644000000
C     0.268000000    -3.341000000    -3.725000000
H    -0.509000000    -3.210000000    -4.474000000
C     0.966000000    -4.383000000    -1.610000000
C     2.167000000    -3.702000000    -1.693000000
H     2.768000000    -3.791000000    -0.791000000
C     2.489000000    -2.953000000    -2.754000000
O     3.642000000    -2.206000000    -2.585000000
C     3.527000000    -0.846000000    -2.156000000
C     4.640000000    -0.471000000    -1.192000000
C     5.438000000    -1.371000000    -0.507000000
H     5.407000000    -2.442000000    -0.691000000
C     4.661000000     0.864000000    -0.775000000
H     4.031000000     1.536000000    -1.351000000
O     3.503000000     0.063000000    -3.355000000
H     2.584000000    -0.767000000    -1.596000000
C     1.576000000    -2.723000000    -3.811000000
C     1.975000000    -1.799000000    -4.906000000
H     1.436000000    -2.124000000    -5.799000000
H     3.056000000    -1.873000000    -5.047000000
C     1.526000000    -0.403000000    -4.665000000
C     2.325000000     0.497000000    -3.900000000
C     1.990000000     1.806000000    -3.653000000
H     2.721000000     2.468000000    -3.195000000
C     0.761000000     2.240000000    -4.077000000
O     0.398000000     3.472000000    -3.640000000
C    -0.448000000     3.611000000    -2.443000000
H    -0.416000000     2.667000000    -1.879000000
C     0.032000000     4.649000000    -1.423000000
C    -0.767000000     4.949000000    -0.285000000
H    -1.726000000     4.440000000    -0.238000000
C     1.335000000     5.134000000    -1.461000000
H     1.993000000     4.919000000    -2.299000000
C     1.773000000     6.015000000    -0.468000000
O     3.114000000     6.473000000    -0.406000000
C     0.972000000     6.287000000     0.650000000
H     1.360000000     6.922000000     1.442000000
C    -0.295000000     5.765000000     0.739000000
O    -0.948000000     5.879000000     1.977000000
C    -2.302000000     5.897000000     2.137000000
C    -2.849000000     4.717000000     2.631000000
H    -2.353000000     3.785000000     2.889000000
C    -3.062000000     7.059000000     1.989000000
H    -2.572000000     7.995000000     1.735000000
C    -4.414000000     7.046000000     2.394000000
H    -5.091000000     7.884000000     2.248000000
C    -4.982000000     5.835000000     2.862000000
H    -6.023000000     5.670000000     3.128000000
C    -4.229000000     4.675000000     2.943000000
O    -4.762000000     3.625000000     3.737000000
C    -4.552000000     2.289000000     3.486000000
C    -4.776000000     1.382000000     4.524000000
H    -4.764000000     1.778000000     5.536000000
C    -4.883000000     0.032000000     4.206000000
O    -5.023000000    -0.842000000     5.199000000
C    -4.368000000    -1.996000000     5.178000000
C    -2.969000000    -2.009000000     5.158000000
H    -2.492000000    -1.047000000     4.993000000
C    -5.091000000    -3.231000000     5.099000000
H    -6.172000000    -3.274000000     5.198000000
C    -4.339000000    -4.429000000     5.080000000
H    -4.939000000    -5.334000000     5.029000000
C    -2.920000000    -4.409000000     5.003000000
H    -2.322000000    -5.313000000     5.093000000
C    -2.248000000    -3.193000000     5.086000000
O    -0.904000000    -3.276000000     5.267000000
C    -0.039000000    -3.636000000     4.239000000
C     1.272000000    -3.897000000     4.532000000
H     1.662000000    -3.802000000     5.543000000
C     2.190000000    -4.221000000     3.470000000
O     3.495000000    -4.589000000     3.834000000
C     4.563000000    -4.483000000     2.961000000
C     5.155000000    -3.276000000     2.619000000
H     4.770000000    -2.350000000     3.039000000
C     5.103000000    -5.664000000     2.458000000
H     4.634000000    -6.605000000     2.736000000
C     6.143000000    -5.635000000     1.545000000
H     6.488000000    -6.564000000     1.099000000
C     6.702000000    -4.399000000     1.193000000
H     7.517000000    -4.321000000     0.478000000
C     6.209000000    -3.213000000     1.685000000
O     6.810000000    -1.982000000     1.361000000
C     6.155000000    -1.043000000     0.648000000
C     6.259000000     0.346000000     0.985000000
H     6.895000000     0.696000000     1.795000000
C     5.514000000     1.280000000     0.280000000
O     5.566000000     2.643000000     0.622000000
C     5.315000000     3.618000000    -0.284000000
C     6.057000000     3.758000000    -1.491000000
H     6.855000000     3.102000000    -1.831000000
C     5.879000000     4.914000000    -2.240000000
H     6.486000000     5.195000000    -3.097000000
C     4.900000000     5.863000000    -1.941000000
H     4.765000000     6.720000000    -2.597000000
C     4.136000000     5.677000000    -0.773000000
C     4.404000000     4.600000000     0.026000000
H     3.858000000     4.503000000     0.961000000
C    -0.553000000     0.843000000     2.982000000
H    -1.247000000     1.423000000     3.584000000
C    -0.856000000     0.672000000     1.675000000
H    -1.694000000     1.203000000     1.231000000
C    -0.035000000    -0.101000000     0.867000000
C    -0.299000000    -0.315000000    -0.620000000
H     0.523000000    -0.837000000    -1.114000000
H    -1.158000000    -0.988000000    -0.657000000
H    -0.483000000     0.594000000    -1.196000000
C     1.141000000    -0.630000000     1.351000000
H     1.922000000    -1.109000000     0.766000000
C     1.315000000    -0.564000000     2.781000000
H     2.167000000    -1.114000000     3.172000000
C     0.477000000     0.122000000     3.603000000
C     0.687000000     0.284000000     5.108000000
O     1.431000000    -0.460000000     5.689000000
O     0.127000000     1.189000000     5.750000000
O     1.647000000     2.437000000     2.032000000
H     0.782000000     2.037000000     2.116000000
H     2.253000000     1.697000000     2.019000000
O     3.894000000     1.547000000     9.982000000
H     4.670000000     1.054000000    10.246000000
H     3.584000000     1.101000000     9.194000000
O    -3.259000000     1.107000000     7.723000000
H    -3.712000000     1.205000000     8.561000000
H    -2.920000000     0.212000000     7.737000000
O    -1.320000000     4.286000000     9.085000000
H    -1.713000000     4.258000000     9.957000000
H    -0.735000000     3.529000000     9.062000000
O     3.755000000     2.213000000     3.759000000
H     3.512000000     2.782000000     3.028000000
H     4.381000000     2.729000000     4.267000000
O     0.907000000    -2.894000000    10.201000000
H     1.512000000    -2.161000000    10.315000000
H     0.514000000    -2.750000000     9.341000000
O     4.059000000     3.493000000     7.803000000
H     3.336000000     3.340000000     7.194000000
H     4.000000000     2.773000000     8.431000000
O    -1.839000000     2.750000000     6.003000000
H    -1.059000000     2.228000000     5.813000000
H    -2.413000000     2.156000000     6.486000000
O     4.486000000    -0.351000000     4.721000000
H     3.584000000    -0.414000000     5.035000000
H     4.499000000     0.443000000     4.187000000
O     6.321000000     0.251000000     7.487000000
H     6.896000000     0.236000000     6.723000000
H     5.455000000     0.451000000     7.131000000
O    -0.055000000     1.632000000     8.301000000
H    -0.396000000     1.355000000     7.450000000
H     0.896000000     1.640000000     8.187000000
O     1.059000000     5.465000000     7.585000000
H     0.887000000     5.138000000     8.468000000
H     1.462000000     4.726000000     7.130000000
O     0.182000000    -2.192000000     7.542000000
H     0.632000000    -1.500000000     7.057000000
H     0.011000000    -2.870000000     6.889000000
O    -0.354000000     5.031000000     5.234000000
H     0.075000000     5.307000000     6.044000000
H    -0.980000000     4.362000000     5.511000000
O     3.276000000     0.137000000     7.698000000
H     2.548000000     0.049000000     7.083000000
H     3.642000000    -0.745000000     7.764000000
O    -1.181000000     0.501000000    10.803000000
H    -1.884000000    -0.139000000    10.690000000
H    -0.699000000     0.475000000     9.976000000
O    -2.542000000    -1.475000000     8.339000000
H    -1.787000000    -1.963000000     8.010000000
H    -3.093000000    -2.137000000     8.755000000
O     1.940000000     5.040000000     3.404000000
H     1.153000000     4.996000000     3.948000000
H     1.795000000     4.387000000     2.720000000
O     2.031000000     2.974000000     6.145000000
H     1.510000000     2.195000000     5.950000000
H     2.298000000     3.305000000     5.287000000
