218
-1439.99021
C    -4.427000000    -0.767000000     3.029000000
H    -4.416000000    -1.795000000     2.677000000
C    -4.463000000     0.248000000     2.108000000
C    -4.597000000     1.553000000     2.590000000
H    -4.575000000     2.409000000     1.921000000
C    -4.392000000    -0.053000000     0.570000000
O    -4.842000000    -1.388000000     0.293000000
H    -3.347000000     0.121000000     0.276000000
O    -5.149000000     0.915000000    -0.116000000
C    -4.521000000     1.360000000    -1.247000000
C    -3.657000000     2.407000000    -1.112000000
H    -3.647000000     2.927000000    -0.157000000
C    -2.876000000     2.830000000    -2.199000000
O    -2.051000000     3.948000000    -2.034000000
C    -2.853000000     2.121000000    -3.384000000
C    -1.930000000     2.456000000    -4.439000000
H    -2.285000000     1.908000000    -5.315000000
C    -0.415000000     1.962000000    -4.220000000
C    -0.056000000     0.816000000    -4.866000000
H    -0.766000000     0.189000000    -5.399000000
H    -1.932000000     3.524000000    -4.668000000
C    -3.629000000     0.966000000    -3.435000000
H    -3.570000000     0.453000000    -4.392000000
C    -4.359000000     0.562000000    -2.372000000
C    -4.916000000    -0.840000000    -2.501000000
H    -5.259000000    -1.094000000    -3.506000000
H    -5.895000000    -0.786000000    -2.019000000
C    -3.947000000    -1.853000000    -1.940000000
C    -3.253000000    -2.712000000    -2.754000000
H    -3.139000000    -2.510000000    -3.816000000
C    -3.946000000    -2.042000000    -0.564000000
C    -3.255000000    -3.049000000    -0.034000000
H    -3.454000000    -3.304000000     1.003000000
C    -2.384000000    -3.798000000    -0.792000000
O    -1.453000000    -4.544000000    -0.085000000
C    -0.028000000    -4.242000000    -0.015000000
C     0.598000000    -4.455000000     1.359000000
C     1.939000000    -4.635000000     1.542000000
H     2.587000000    -4.810000000     0.687000000
C    -0.224000000    -4.349000000     2.480000000
H    -1.291000000    -4.163000000     2.393000000
O     0.784000000    -4.858000000    -1.117000000
H     0.002000000    -3.172000000    -0.268000000
C    -2.357000000    -3.662000000    -2.186000000
C    -1.391000000    -4.452000000    -3.032000000
H    -1.731000000    -4.681000000    -4.044000000
H    -1.335000000    -5.455000000    -2.604000000
C    -0.009000000    -3.853000000    -3.085000000
C     0.217000000    -2.820000000    -3.978000000
H    -0.613000000    -2.470000000    -4.585000000
C     1.063000000    -4.235000000    -2.268000000
C     2.310000000    -3.567000000    -2.410000000
H     3.134000000    -3.887000000    -1.777000000
C     2.504000000    -2.535000000    -3.340000000
O     3.645000000    -1.801000000    -3.183000000
C     3.470000000    -0.505000000    -2.595000000
C     4.573000000    -0.117000000    -1.567000000
C     5.164000000    -1.112000000    -0.798000000
H     4.994000000    -2.154000000    -1.059000000
C     4.798000000     1.249000000    -1.282000000
H     4.216000000     2.065000000    -1.705000000
O     3.379000000     0.512000000    -3.664000000
H     2.550000000    -0.497000000    -1.992000000
C     1.464000000    -2.145000000    -4.138000000
C     1.650000000    -1.064000000    -5.222000000
H     1.001000000    -1.193000000    -6.091000000
H     2.681000000    -1.095000000    -5.580000000
C     1.263000000     0.322000000    -4.658000000
C     2.136000000     0.995000000    -3.870000000
C     1.862000000     2.313000000    -3.441000000
H     2.615000000     2.773000000    -2.806000000
C     0.567000000     2.743000000    -3.608000000
O     0.213000000     3.968000000    -3.029000000
C    -0.645000000     3.894000000    -1.824000000
H    -0.440000000     2.920000000    -1.355000000
C    -0.112000000     4.797000000    -0.636000000
C    -0.823000000     4.802000000     0.581000000
H    -1.785000000     4.301000000     0.644000000
C     1.186000000     5.351000000    -0.651000000
H     1.688000000     5.312000000    -1.615000000
C     1.654000000     5.997000000     0.471000000
O     2.902000000     6.503000000     0.490000000
C     0.850000000     6.197000000     1.560000000
H     1.278000000     6.754000000     2.389000000
C    -0.380000000     5.530000000     1.669000000
O    -1.094000000     5.614000000     2.811000000
C    -2.423000000     5.411000000     2.864000000
C    -2.878000000     4.443000000     3.749000000
H    -2.136000000     3.879000000     4.309000000
C    -3.313000000     6.169000000     2.075000000
H    -3.012000000     6.766000000     1.218000000
C    -4.655000000     5.981000000     2.272000000
H    -5.332000000     6.632000000     1.724000000
C    -5.088000000     4.957000000     3.097000000
H    -6.165000000     4.882000000     3.226000000
C    -4.213000000     4.113000000     3.839000000
O    -4.715000000     3.091000000     4.515000000
C    -4.559000000     1.818000000     3.957000000
C    -4.455000000     0.755000000     4.867000000
H    -4.540000000     0.967000000     5.930000000
C    -4.417000000    -0.569000000     4.408000000
O    -4.444000000    -1.547000000     5.395000000
C    -3.779000000    -2.745000000     5.300000000
C    -2.379000000    -2.892000000     5.091000000
H    -1.771000000    -1.992000000     5.066000000
C    -4.567000000    -3.881000000     5.319000000
H    -5.646000000    -3.841000000     5.449000000
C    -3.972000000    -5.121000000     5.327000000
H    -4.632000000    -5.966000000     5.508000000
C    -2.607000000    -5.266000000     5.032000000
H    -2.174000000    -6.261000000     4.983000000
C    -1.799000000    -4.165000000     5.015000000
O    -0.427000000    -4.418000000     4.941000000
C     0.354000000    -4.442000000     3.784000000
C     1.731000000    -4.490000000     3.926000000
H     2.206000000    -4.485000000     4.904000000
C     2.489000000    -4.620000000     2.790000000
O     3.806000000    -4.898000000     2.999000000
C     4.785000000    -4.562000000     2.067000000
C     5.162000000    -3.231000000     1.893000000
H     4.797000000    -2.459000000     2.565000000
C     5.491000000    -5.572000000     1.401000000
H     5.379000000    -6.635000000     1.599000000
C     6.470000000    -5.218000000     0.504000000
H     6.956000000    -6.064000000     0.024000000
C     6.973000000    -3.927000000     0.436000000
H     7.923000000    -3.740000000    -0.057000000
C     6.269000000    -2.927000000     1.081000000
O     6.741000000    -1.688000000     0.954000000
C     6.020000000    -0.705000000     0.230000000
C     6.304000000     0.642000000     0.471000000
H     6.889000000     0.925000000     1.342000000
C     5.751000000     1.618000000    -0.304000000
O     6.022000000     2.953000000     0.049000000
C     5.396000000     4.034000000    -0.465000000
C     5.685000000     4.405000000    -1.778000000
H     6.411000000     3.857000000    -2.374000000
C     5.147000000     5.547000000    -2.290000000
H     5.325000000     5.763000000    -3.341000000
C     4.173000000     6.276000000    -1.571000000
H     3.631000000     7.147000000    -1.931000000
C     3.891000000     5.918000000    -0.234000000
C     4.567000000     4.813000000     0.322000000
H     4.367000000     4.559000000     1.360000000
C    -0.991000000     1.053000000     2.892000000
H    -1.666000000     1.728000000     3.412000000
C    -0.919000000     1.022000000     1.473000000
H    -1.378000000     1.774000000     0.837000000
C    -0.272000000    -0.009000000     0.934000000
C    -0.299000000    -0.267000000    -0.592000000
H     0.244000000    -1.165000000    -0.894000000
H    -1.286000000    -0.378000000    -1.045000000
H     0.007000000     0.737000000    -0.893000000
C     0.547000000    -0.849000000     1.765000000
H     1.151000000    -1.604000000     1.269000000
C     0.594000000    -0.714000000     3.114000000
H     1.327000000    -1.236000000     3.723000000
C    -0.215000000     0.248000000     3.700000000
C    -0.149000000     0.527000000     5.210000000
O     0.592000000    -0.118000000     5.896000000
O    -0.814000000     1.483000000     5.670000000
O     2.889000000     2.031000000     1.019000000
H     3.268000000     1.623000000     0.241000000
H     2.153000000     1.464000000     1.252000000
O     2.799000000     1.503000000     9.647000000
H     2.595000000     1.404000000    10.577000000
H     2.881000000     0.605000000     9.324000000
O    -4.588000000     1.270000000     8.714000000
H    -4.077000000     1.928000000     8.243000000
H    -4.293000000     0.434000000     8.352000000
O    -1.652000000     4.282000000     8.811000000
H    -1.296000000     3.394000000     8.823000000
H    -0.896000000     4.841000000     8.633000000
O     4.612000000     2.189000000     3.854000000
H     4.622000000     2.931000000     3.249000000
H     5.488000000     2.182000000     4.240000000
O    -2.012000000    -3.412000000     8.419000000
H    -2.189000000    -4.090000000     7.767000000
H    -1.519000000    -3.862000000     9.105000000
O     0.643000000    -2.575000000     9.442000000
H     0.470000000    -2.454000000     8.508000000
H     1.106000000    -3.411000000     9.494000000
O     3.051000000    -1.034000000     8.667000000
H     2.179000000    -1.368000000     8.456000000
H     3.652000000    -1.675000000     8.288000000
O     2.858000000     3.935000000     8.101000000
H     2.911000000     3.468000000     7.268000000
H     3.061000000     3.272000000     8.761000000
O    -2.750000000     2.527000000     6.987000000
H    -2.154000000     2.171000000     6.328000000
H    -2.414000000     3.406000000     7.165000000
O     3.616000000    -0.275000000     4.793000000
H     2.664000000    -0.367000000     4.801000000
H     3.772000000     0.575000000     4.381000000
O    -1.312000000    -0.779000000    10.099000000
H    -0.770000000    -1.550000000     9.927000000
H    -1.276000000    -0.276000000     9.285000000
O     1.364000000    -2.353000000     6.597000000
H     0.653000000    -2.771000000     6.111000000
H     1.231000000    -1.415000000     6.455000000
O     0.704000000     3.662000000     5.292000000
H    -0.024000000     3.155000000     5.650000000
H     1.452000000     3.065000000     5.327000000
O    -0.266000000     1.478000000     8.543000000
H    -0.422000000     1.519000000     7.599000000
H     0.667000000     1.671000000     8.639000000
O    -3.971000000    -1.318000000     8.461000000
H    -4.719000000    -1.855000000     8.200000000
H    -3.239000000    -1.933000000     8.505000000
O     5.855000000    -0.602000000     6.341000000
H     6.341000000    -1.082000000     5.670000000
H     4.972000000    -0.516000000     5.981000000
O     2.333000000     4.096000000     3.025000000
H     1.476000000     3.822000000     3.351000000
H     2.387000000     3.720000000     2.146000000
O     2.463000000     1.675000000     6.282000000
H     1.847000000     0.948000000     6.376000000
H     3.309000000     1.253000000     6.133000000
