218
-1450.21353
C    -3.797000000    -0.861000000     2.957000000
H    -3.201000000    -1.756000000     2.796000000
C    -4.255000000    -0.128000000     1.865000000
C    -4.969000000     1.070000000     2.100000000
H    -5.371000000     1.661000000     1.281000000
C    -4.022000000    -0.747000000     0.510000000
O    -4.325000000    -2.147000000     0.495000000
H    -2.999000000    -0.505000000     0.187000000
O    -4.905000000    -0.173000000    -0.479000000
C    -4.354000000     0.184000000    -1.672000000
C    -3.953000000     1.499000000    -1.797000000
H    -4.066000000     2.105000000    -0.903000000
C    -3.318000000     1.991000000    -2.883000000
O    -2.759000000     3.212000000    -2.823000000
C    -2.997000000     1.188000000    -3.912000000
C    -2.054000000     1.628000000    -5.047000000
H    -2.348000000     1.201000000    -6.009000000
C    -0.640000000     1.451000000    -4.562000000
C    -0.057000000     0.254000000    -4.940000000
H    -0.587000000    -0.509000000    -5.504000000
H    -2.198000000     2.688000000    -5.264000000
C    -3.328000000    -0.196000000    -3.801000000
H    -2.963000000    -0.878000000    -4.565000000
C    -4.109000000    -0.671000000    -2.719000000
C    -4.471000000    -2.178000000    -2.623000000
H    -4.421000000    -2.489000000    -3.668000000
H    -5.506000000    -2.308000000    -2.300000000
C    -3.510000000    -2.954000000    -1.765000000
C    -2.566000000    -3.803000000    -2.406000000
H    -2.515000000    -3.786000000    -3.492000000
C    -3.483000000    -2.902000000    -0.330000000
C    -2.541000000    -3.692000000     0.357000000
H    -2.579000000    -3.752000000     1.441000000
C    -1.539000000    -4.320000000    -0.307000000
O    -0.481000000    -4.768000000     0.469000000
C     0.788000000    -4.023000000     0.457000000
C     1.505000000    -4.024000000     1.815000000
C     2.936000000    -4.022000000     1.932000000
H     3.484000000    -4.209000000     1.012000000
C     0.699000000    -4.026000000     2.931000000
H    -0.382000000    -4.099000000     2.853000000
O     1.632000000    -4.675000000    -0.404000000
H     0.639000000    -2.970000000     0.176000000
C    -1.468000000    -4.309000000    -1.730000000
C    -0.402000000    -5.023000000    -2.518000000
H    -0.751000000    -5.386000000    -3.487000000
H    -0.155000000    -5.944000000    -1.986000000
C     0.802000000    -4.097000000    -2.669000000
C     0.892000000    -3.214000000    -3.736000000
H     0.024000000    -3.132000000    -4.385000000
C     1.817000000    -4.018000000    -1.648000000
C     2.915000000    -3.144000000    -1.770000000
H     3.563000000    -3.184000000    -0.899000000
C     2.947000000    -2.289000000    -2.856000000
O     3.909000000    -1.364000000    -2.817000000
C     3.550000000    -0.059000000    -2.618000000
C     4.583000000     0.576000000    -1.702000000
C     5.174000000    -0.199000000    -0.650000000
H     5.075000000    -1.280000000    -0.703000000
C     4.766000000     1.947000000    -1.768000000
H     4.389000000     2.605000000    -2.547000000
O     3.398000000     0.654000000    -3.831000000
H     2.564000000    -0.017000000    -2.131000000
C     1.950000000    -2.319000000    -3.841000000
C     1.859000000    -1.345000000    -5.037000000
H     1.350000000    -1.839000000    -5.867000000
H     2.880000000    -1.290000000    -5.420000000
C     1.306000000     0.012000000    -4.745000000
C     2.110000000     0.948000000    -4.073000000
C     1.485000000     2.100000000    -3.575000000
H     1.927000000     2.772000000    -2.844000000
C     0.187000000     2.334000000    -3.866000000
O    -0.398000000     3.486000000    -3.323000000
C    -1.386000000     3.290000000    -2.259000000
H    -1.162000000     2.328000000    -1.774000000
C    -1.214000000     4.126000000    -1.017000000
C    -2.284000000     4.728000000    -0.307000000
H    -3.298000000     4.518000000    -0.639000000
C     0.081000000     4.253000000    -0.464000000
H     0.946000000     3.769000000    -0.911000000
C     0.305000000     5.057000000     0.653000000
O     1.545000000     5.146000000     1.240000000
C    -0.770000000     5.753000000     1.245000000
H    -0.609000000     6.481000000     2.037000000
C    -2.069000000     5.552000000     0.805000000
O    -3.086000000     6.110000000     1.533000000
C    -4.302000000     5.518000000     1.733000000
C    -4.423000000     4.324000000     2.395000000
H    -3.513000000     3.801000000     2.680000000
C    -5.513000000     6.045000000     1.300000000
H    -5.488000000     6.900000000     0.630000000
C    -6.814000000     5.543000000     1.552000000
H    -7.655000000     6.210000000     1.382000000
C    -6.860000000     4.436000000     2.316000000
H    -7.839000000     4.009000000     2.516000000
C    -5.679000000     3.868000000     2.778000000
O    -5.693000000     2.781000000     3.605000000
C    -5.067000000     1.561000000     3.376000000
C    -4.458000000     0.919000000     4.500000000
H    -4.593000000     1.376000000     5.477000000
C    -3.833000000    -0.324000000     4.228000000
O    -3.157000000    -0.994000000     5.234000000
C    -2.696000000    -2.251000000     5.300000000
C    -1.350000000    -2.511000000     5.372000000
H    -0.614000000    -1.711000000     5.403000000
C    -3.549000000    -3.345000000     5.178000000
H    -4.623000000    -3.179000000     5.138000000
C    -3.070000000    -4.645000000     5.035000000
H    -3.692000000    -5.530000000     4.928000000
C    -1.763000000    -4.912000000     5.186000000
H    -1.429000000    -5.946000000     5.175000000
C    -0.886000000    -3.850000000     5.259000000
O     0.456000000    -4.081000000     5.252000000
C     1.288000000    -4.027000000     4.168000000
C     2.716000000    -4.139000000     4.284000000
H     3.230000000    -4.168000000     5.241000000
C     3.535000000    -4.145000000     3.183000000
O     4.910000000    -4.313000000     3.335000000
C     5.786000000    -3.788000000     2.407000000
C     5.774000000    -2.383000000     2.292000000
H     5.169000000    -1.825000000     3.002000000
C     6.651000000    -4.484000000     1.586000000
H     6.872000000    -5.532000000     1.774000000
C     7.489000000    -3.766000000     0.704000000
H     8.253000000    -4.311000000     0.156000000
C     7.328000000    -2.383000000     0.598000000
H     7.893000000    -1.899000000    -0.195000000
C     6.548000000    -1.665000000     1.433000000
O     6.438000000    -0.295000000     1.357000000
C     5.930000000     0.420000000     0.327000000
C     5.981000000     1.816000000     0.362000000
H     6.475000000     2.300000000     1.200000000
C     5.487000000     2.552000000    -0.714000000
O     5.765000000     3.924000000    -0.685000000
C     4.776000000     4.844000000    -0.409000000
C     5.028000000     6.176000000    -0.766000000
H     6.009000000     6.336000000    -1.206000000
C     4.135000000     7.130000000    -0.399000000
H     4.385000000     8.155000000    -0.661000000
C     2.968000000     6.794000000     0.232000000
H     2.249000000     7.565000000     0.497000000
C     2.720000000     5.492000000     0.676000000
C     3.643000000     4.490000000     0.299000000
H     3.288000000     3.480000000     0.489000000
C    -0.145000000     1.407000000     2.222000000
H    -0.562000000     2.296000000     2.688000000
C    -0.419000000     0.951000000     0.983000000
H    -1.267000000     1.418000000     0.489000000
C     0.258000000    -0.067000000     0.403000000
C    -0.066000000    -0.435000000    -1.057000000
H     0.184000000    -1.461000000    -1.336000000
H    -1.119000000    -0.269000000    -1.295000000
H     0.497000000     0.238000000    -1.706000000
C     1.339000000    -0.620000000     1.077000000
H     2.013000000    -1.313000000     0.580000000
C     1.569000000    -0.321000000     2.431000000
H     2.355000000    -0.805000000     3.006000000
C     0.846000000     0.769000000     2.970000000
C     1.115000000     1.254000000     4.393000000
O     2.002000000     0.718000000     4.932000000
O     0.452000000     2.152000000     4.892000000
O    -0.808000000     5.537000000     6.544000000
H     0.045000000     5.507000000     6.110000000
H    -1.171000000     6.389000000     6.300000000
O     4.363000000     1.420000000     3.746000000
H     3.561000000     1.270000000     4.246000000
H     4.137000000     1.172000000     2.849000000
O    -2.725000000     3.706000000     7.510000000
H    -2.105000000     4.355000000     7.176000000
H    -3.411000000     4.224000000     7.931000000
O    -0.555000000    -0.518000000    10.099000000
H    -1.174000000    -1.078000000     9.630000000
H     0.100000000    -0.282000000     9.442000000
O     2.520000000    -3.326000000     8.226000000
H     1.765000000    -2.811000000     8.512000000
H     2.907000000    -2.812000000     7.518000000
O     1.294000000     2.750000000     7.330000000
H     1.402000000     1.950000000     7.845000000
H     0.849000000     2.464000000     6.532000000
O     2.998000000    -1.354000000     6.151000000
H     2.453000000    -0.897000000     5.510000000
H     3.842000000    -0.905000000     6.112000000
O     6.149000000     1.295000000     7.492000000
H     5.371000000     1.792000000     7.241000000
H     5.933000000     0.930000000     8.351000000
O    -3.961000000     0.415000000     8.697000000
H    -4.413000000     1.256000000     8.771000000
H    -3.222000000     0.591000000     8.115000000
O     0.917000000     0.077000000     7.806000000
H     0.115000000     0.326000000     7.347000000
H     1.502000000    -0.235000000     7.115000000
O     0.072000000     2.836000000    10.062000000
H     0.283000000     2.590000000     9.161000000
H    -0.150000000     3.765000000    10.012000000
O     2.186000000     5.899000000     7.340000000
H     1.914000000     5.223000000     6.719000000
H     1.887000000     6.719000000     6.947000000
O     6.727000000     0.113000000     4.864000000
H     6.688000000     0.435000000     5.764000000
H     6.001000000     0.552000000     4.421000000
O     4.948000000     5.955000000     7.310000000
H     5.124000000     6.580000000     8.013000000
H     3.998000000     5.839000000     7.325000000
O     5.003000000     6.192000000     4.313000000
H     5.195000000     6.125000000     5.249000000
H     4.083000000     6.452000000     4.276000000
O     6.420000000     3.419000000     3.904000000
H     6.024000000     4.113000000     3.377000000
H     5.730000000     2.762000000     3.993000000
O     1.484000000     4.857000000     4.917000000
H     0.966000000     4.052000000     4.927000000
H     1.616000000     5.045000000     3.988000000
O     3.856000000     2.354000000     6.427000000
H     3.438000000     3.170000000     6.703000000
H     3.128000000     1.756000000     6.263000000
O    -1.497000000     1.502000000     6.752000000
H    -1.026000000     1.869000000     6.004000000
H    -1.792000000     2.266000000     7.247000000
