218
-1476.46920
C    -4.794000000    -1.372000000     2.095000000
H    -4.868000000    -2.339000000     1.604000000
C    -4.528000000    -0.215000000     1.374000000
C    -4.429000000     1.017000000     1.980000000
H    -4.192000000     1.879000000     1.362000000
C    -4.082000000    -0.350000000    -0.095000000
O    -4.613000000    -1.591000000    -0.681000000
H    -2.984000000    -0.405000000    -0.042000000
O    -4.580000000     0.738000000    -0.938000000
C    -3.810000000     1.357000000    -1.858000000
C    -3.160000000     2.546000000    -1.607000000
H    -3.222000000     3.005000000    -0.623000000
C    -2.385000000     3.195000000    -2.583000000
O    -1.705000000     4.359000000    -2.203000000
C    -2.136000000     2.567000000    -3.777000000
C    -1.042000000     3.068000000    -4.730000000
H    -1.163000000     2.668000000    -5.739000000
C     0.359000000     2.533000000    -4.323000000
C     0.990000000     1.406000000    -4.844000000
H     0.366000000     0.814000000    -5.508000000
H    -1.144000000     4.155000000    -4.761000000
C    -2.838000000     1.344000000    -4.120000000
H    -2.618000000     0.909000000    -5.091000000
C    -3.663000000     0.811000000    -3.142000000
C    -4.393000000    -0.472000000    -3.501000000
H    -4.511000000    -0.559000000    -4.583000000
H    -5.406000000    -0.429000000    -3.095000000
C    -3.573000000    -1.644000000    -2.934000000
C    -2.526000000    -2.126000000    -3.664000000
H    -2.266000000    -1.903000000    -4.695000000
C    -3.817000000    -2.140000000    -1.658000000
C    -3.004000000    -3.080000000    -1.104000000
H    -3.297000000    -3.381000000    -0.102000000
C    -2.028000000    -3.677000000    -1.912000000
O    -1.214000000    -4.645000000    -1.268000000
C     0.003000000    -4.174000000    -0.665000000
C     0.282000000    -4.513000000     0.807000000
C     1.544000000    -4.755000000     1.270000000
H     2.429000000    -4.709000000     0.640000000
C    -0.763000000    -4.601000000     1.795000000
H    -1.763000000    -4.266000000     1.529000000
O     1.152000000    -4.409000000    -1.468000000
H    -0.107000000    -3.080000000    -0.630000000
C    -1.711000000    -3.167000000    -3.136000000
C    -0.602000000    -3.775000000    -3.944000000
H    -0.788000000    -3.607000000    -5.007000000
H    -0.667000000    -4.852000000    -3.773000000
C     0.764000000    -3.193000000    -3.520000000
C     1.309000000    -2.234000000    -4.373000000
H     0.726000000    -1.966000000    -5.250000000
C     1.539000000    -3.592000000    -2.459000000
C     2.797000000    -2.960000000    -2.199000000
H     3.380000000    -3.479000000    -1.443000000
C     3.183000000    -1.881000000    -2.909000000
O     4.212000000    -1.145000000    -2.409000000
C     3.934000000     0.128000000    -1.780000000
C     4.750000000     0.353000000    -0.562000000
C     5.093000000    -0.803000000     0.191000000
H     4.622000000    -1.738000000    -0.102000000
C     5.258000000     1.604000000    -0.227000000
H     5.120000000     2.471000000    -0.867000000
O     4.113000000     1.243000000    -2.729000000
H     2.873000000     0.177000000    -1.492000000
C     2.455000000    -1.492000000    -4.011000000
C     2.745000000    -0.336000000    -4.927000000
H     2.443000000    -0.506000000    -5.963000000
H     3.823000000    -0.259000000    -5.078000000
C     2.258000000     1.000000000    -4.388000000
C     2.913000000     1.692000000    -3.329000000
C     2.309000000     2.829000000    -2.778000000
H     2.839000000     3.370000000    -1.998000000
C     1.046000000     3.189000000    -3.263000000
O     0.579000000     4.325000000    -2.638000000
C    -0.435000000     4.047000000    -1.648000000
H    -0.372000000     2.953000000    -1.555000000
C    -0.181000000     4.764000000    -0.334000000
C    -1.286000000     5.136000000     0.404000000
H    -2.256000000     5.252000000    -0.073000000
C     1.066000000     4.734000000     0.223000000
H     1.938000000     4.248000000    -0.207000000
C     1.236000000     5.256000000     1.538000000
O     2.438000000     5.125000000     2.261000000
C     0.140000000     5.746000000     2.245000000
H     0.314000000     6.208000000     3.213000000
C    -1.121000000     5.709000000     1.686000000
O    -2.243000000     6.090000000     2.450000000
C    -3.442000000     5.350000000     2.556000000
C    -3.515000000     4.101000000     3.168000000
H    -2.595000000     3.582000000     3.425000000
C    -4.628000000     6.062000000     2.295000000
H    -4.600000000     7.108000000     2.001000000
C    -5.866000000     5.501000000     2.618000000
H    -6.834000000     5.912000000     2.344000000
C    -5.933000000     4.236000000     3.277000000
H    -6.882000000     3.750000000     3.485000000
C    -4.739000000     3.544000000     3.464000000
O    -4.814000000     2.262000000     4.043000000
C    -4.713000000     1.149000000     3.367000000
C    -5.008000000    -0.031000000     4.057000000
H    -5.177000000     0.045000000     5.128000000
C    -5.041000000    -1.243000000     3.438000000
O    -5.340000000    -2.357000000     4.149000000
C    -4.705000000    -3.547000000     3.927000000
C    -3.384000000    -3.759000000     4.136000000
H    -2.764000000    -2.874000000     4.251000000
C    -5.558000000    -4.660000000     3.782000000
H    -6.590000000    -4.395000000     3.569000000
C    -5.045000000    -5.973000000     3.758000000
H    -5.719000000    -6.807000000     3.580000000
C    -3.647000000    -6.127000000     3.851000000
H    -3.147000000    -7.082000000     3.705000000
C    -2.847000000    -5.003000000     3.995000000
O    -1.460000000    -5.105000000     4.111000000
C    -0.480000000    -5.018000000     3.139000000
C     0.770000000    -5.355000000     3.463000000
H     1.037000000    -5.756000000     4.438000000
C     1.820000000    -5.242000000     2.547000000
O     3.133000000    -5.509000000     2.904000000
C     4.277000000    -4.921000000     2.395000000
C     4.564000000    -3.592000000     2.598000000
H     3.870000000    -3.083000000     3.262000000
C     5.067000000    -5.615000000     1.488000000
H     4.794000000    -6.608000000     1.140000000
C     6.219000000    -5.017000000     0.940000000
H     6.794000000    -5.525000000     0.169000000
C     6.519000000    -3.701000000     1.152000000
H     7.375000000    -3.244000000     0.663000000
C     5.707000000    -2.984000000     2.003000000
O     5.914000000    -1.713000000     2.304000000
C     5.838000000    -0.649000000     1.373000000
C     6.357000000     0.609000000     1.677000000
H     6.982000000     0.718000000     2.559000000
C     6.056000000     1.692000000     0.908000000
O     6.593000000     2.877000000     1.340000000
C     5.803000000     3.987000000     1.170000000
C     6.395000000     5.181000000     0.676000000
H     7.408000000     5.189000000     0.280000000
C     5.568000000     6.347000000     0.813000000
H     6.014000000     7.298000000     0.531000000
C     4.261000000     6.370000000     1.282000000
H     3.804000000     7.315000000     1.565000000
C     3.724000000     5.127000000     1.690000000
C     4.492000000     3.978000000     1.654000000
H     4.207000000     3.028000000     2.097000000
C     0.378000000     1.360000000     2.305000000
H     0.063000000     2.195000000     2.925000000
C    -0.085000000     1.181000000     0.988000000
H    -0.914000000     1.811000000     0.676000000
C     0.288000000     0.075000000     0.239000000
C    -0.197000000    -0.174000000    -1.155000000
H     0.569000000     0.107000000    -1.880000000
H    -0.384000000    -1.249000000    -1.207000000
H    -1.149000000     0.304000000    -1.395000000
C     1.208000000    -0.830000000     0.724000000
H     1.544000000    -1.686000000     0.144000000
C     1.659000000    -0.626000000     2.031000000
H     2.444000000    -1.277000000     2.407000000
C     1.318000000     0.500000000     2.761000000
C     1.974000000     0.748000000     4.085000000
O     2.622000000    -0.119000000     4.618000000
O     1.650000000     1.689000000     4.775000000
O     2.779000000    -0.456000000    10.230000000
H     2.839000000    -0.016000000    11.078000000
H     2.678000000     0.255000000     9.597000000
O     3.257000000    -0.978000000     7.167000000
H     3.215000000    -0.066000000     7.454000000
H     2.902000000    -0.966000000     6.279000000
O    -1.178000000     2.706000000     5.074000000
H    -1.663000000     1.918000000     5.320000000
H    -0.322000000     2.382000000     4.792000000
O     1.505000000    -2.641000000     4.979000000
H     1.730000000    -1.712000000     4.929000000
H     0.666000000    -2.708000000     4.525000000
O     5.500000000     4.502000000     7.436000000
H     4.970000000     4.280000000     8.201000000
H     5.198000000     3.903000000     6.753000000
O     4.464000000     2.875000000     5.159000000
H     4.099000000     2.000000000     5.023000000
H     5.383000000     2.793000000     4.904000000
O     1.195000000    -4.125000000     7.237000000
H     1.775000000    -4.877000000     7.114000000
H     1.314000000    -3.599000000     6.446000000
O    -2.657000000     0.187000000     6.125000000
H    -1.893000000    -0.245000000     6.509000000
H    -3.395000000    -0.371000000     6.370000000
O     1.850000000     1.276000000     7.875000000
H     1.172000000     1.723000000     8.381000000
H     1.662000000     1.507000000     6.966000000
O    -0.351000000    -1.163000000     7.658000000
H    -0.368000000    -1.961000000     8.186000000
H     0.531000000    -1.138000000     7.288000000
O    -0.880000000     2.488000000     9.444000000
H    -0.588000000     2.766000000    10.312000000
H    -0.604000000     3.196000000     8.861000000
O     0.963000000     6.367000000     6.034000000
H     0.052000000     6.250000000     5.767000000
H     1.297000000     5.477000000     6.146000000
O     1.324000000     4.177000000     8.960000000
H     1.513000000     4.228000000     8.023000000
H     2.184000000     4.179000000     9.379000000
O    -1.473000000     5.333000000     5.461000000
H    -2.193000000     5.246000000     6.085000000
H    -1.167000000     4.437000000     5.322000000
O     5.263000000    -0.385000000     4.779000000
H     5.317000000    -0.644000000     3.859000000
H     4.326000000    -0.386000000     4.974000000
O     4.149000000    -3.568000000     8.132000000
H     3.893000000    -2.719000000     7.772000000
H     4.595000000    -3.357000000     8.952000000
O     4.398000000     5.896000000     4.877000000
H     4.580000000     4.987000000     5.114000000
H     5.072000000     6.116000000     4.234000000
O     1.872000000     3.763000000     6.290000000
H     2.766000000     3.883000000     5.969000000
H     1.577000000     2.950000000     5.879000000
O     7.006000000     1.144000000     6.256000000
H     6.345000000     0.678000000     5.742000000
H     7.533000000     0.450000000     6.652000000
