218
-1444.68780
C    -4.434000000     1.221000000    -2.557000000
H    -3.854000000     1.249000000    -3.476000000
C    -4.086000000     2.145000000    -1.533000000
C    -4.883000000     2.221000000    -0.403000000
H    -4.627000000     2.862000000     0.437000000
C    -2.688000000     2.846000000    -1.544000000
O    -2.398000000     3.309000000    -2.845000000
H    -2.021000000     2.080000000    -1.122000000
O    -2.716000000     3.927000000    -0.653000000
C    -1.572000000     4.172000000     0.105000000
C    -1.568000000     3.895000000     1.489000000
H    -2.467000000     3.647000000     2.047000000
C    -0.458000000     4.167000000     2.300000000
O    -0.456000000     3.558000000     3.513000000
C     0.743000000     4.695000000     1.713000000
C     2.010000000     4.815000000     2.460000000
H     2.583000000     5.662000000     2.075000000
C     2.818000000     3.496000000     2.505000000
C     3.673000000     3.204000000     1.412000000
H     3.895000000     3.935000000     0.639000000
H     1.794000000     5.210000000     3.455000000
C     0.740000000     5.044000000     0.373000000
H     1.640000000     5.471000000    -0.061000000
C    -0.428000000     4.785000000    -0.415000000
C    -0.349000000     5.151000000    -1.932000000
H     0.484000000     5.849000000    -2.046000000
H    -1.285000000     5.659000000    -2.173000000
C    -0.047000000     3.963000000    -2.824000000
C     1.303000000     3.712000000    -3.231000000
H     2.131000000     4.391000000    -3.046000000
C    -1.092000000     3.156000000    -3.273000000
C    -0.839000000     2.095000000    -4.075000000
H    -1.667000000     1.436000000    -4.322000000
C     0.443000000     1.787000000    -4.428000000
O     0.725000000     0.575000000    -5.041000000
C     1.259000000    -0.588000000    -4.258000000
C     0.548000000    -1.901000000    -4.645000000
C     1.217000000    -3.080000000    -4.590000000
H     2.280000000    -3.120000000    -4.368000000
C    -0.831000000    -1.862000000    -4.940000000
H    -1.405000000    -0.955000000    -5.112000000
O     2.717000000    -0.660000000    -4.227000000
H     0.855000000    -0.389000000    -3.254000000
C     1.561000000     2.537000000    -3.938000000
C     2.972000000     2.160000000    -4.260000000
H     3.459000000     3.125000000    -4.416000000
H     3.005000000     1.729000000    -5.263000000
C     3.589000000     1.343000000    -3.226000000
C     4.229000000     1.910000000    -2.108000000
H     4.312000000     2.992000000    -2.042000000
C     3.455000000    -0.051000000    -3.233000000
C     3.845000000    -0.851000000    -2.161000000
H     3.624000000    -1.915000000    -2.146000000
C     4.407000000    -0.240000000    -1.083000000
O     4.708000000    -1.055000000    -0.008000000
C     3.913000000    -0.975000000     1.201000000
C     3.467000000    -2.251000000     1.696000000
C     2.799000000    -3.132000000     0.778000000
H     2.549000000    -2.657000000    -0.167000000
C     3.425000000    -2.588000000     3.006000000
H     3.843000000    -1.913000000     3.748000000
O     4.487000000    -0.216000000     2.292000000
H     2.946000000    -0.565000000     0.875000000
C     4.724000000     1.079000000    -1.035000000
C     5.332000000     1.723000000     0.223000000
H     5.855000000     2.624000000    -0.106000000
H     6.086000000     1.048000000     0.632000000
C     4.307000000     1.990000000     1.349000000
C     4.005000000     1.084000000     2.346000000
C     3.183000000     1.272000000     3.381000000
H     2.908000000     0.493000000     4.087000000
C     2.571000000     2.541000000     3.469000000
O     1.481000000     2.520000000     4.280000000
C     0.226000000     2.342000000     3.524000000
H     0.517000000     2.030000000     2.510000000
C    -0.619000000     1.240000000     4.193000000
C    -1.860000000     0.861000000     3.792000000
H    -2.356000000     1.354000000     2.960000000
C     0.040000000     0.459000000     5.190000000
H     1.026000000     0.621000000     5.619000000
C    -0.647000000    -0.597000000     5.742000000
O    -0.152000000    -1.116000000     6.937000000
C    -2.008000000    -0.916000000     5.414000000
H    -2.560000000    -1.704000000     5.921000000
C    -2.578000000    -0.187000000     4.394000000
O    -3.826000000    -0.516000000     3.937000000
C    -4.850000000     0.338000000     3.640000000
C    -5.414000000     0.362000000     2.314000000
H    -4.954000000    -0.250000000     1.542000000
C    -5.231000000     1.186000000     4.647000000
H    -4.794000000     1.226000000     5.642000000
C    -6.225000000     2.111000000     4.372000000
H    -6.473000000     2.897000000     5.080000000
C    -6.858000000     2.128000000     3.107000000
H    -7.576000000     2.844000000     2.715000000
C    -6.410000000     1.278000000     2.075000000
O    -6.859000000     1.407000000     0.859000000
C    -6.083000000     1.404000000    -0.294000000
C    -6.414000000     0.547000000    -1.359000000
H    -7.284000000    -0.102000000    -1.292000000
C    -5.641000000     0.548000000    -2.587000000
O    -6.091000000    -0.110000000    -3.703000000
C    -5.296000000    -0.537000000    -4.738000000
C    -4.525000000    -1.697000000    -4.552000000
H    -4.493000000    -2.249000000    -3.616000000
C    -5.185000000     0.210000000    -5.897000000
H    -5.835000000     1.072000000    -6.027000000
C    -4.318000000    -0.160000000    -6.905000000
H    -4.084000000     0.495000000    -7.740000000
C    -3.584000000    -1.329000000    -6.766000000
H    -2.802000000    -1.652000000    -7.448000000
C    -3.675000000    -2.051000000    -5.561000000
O    -2.859000000    -3.083000000    -5.386000000
C    -1.507000000    -3.077000000    -4.998000000
C    -0.890000000    -4.254000000    -4.866000000
H    -1.463000000    -5.178000000    -4.904000000
C     0.472000000    -4.282000000    -4.747000000
O     1.038000000    -5.497000000    -4.532000000
C     1.588000000    -5.868000000    -3.296000000
C     1.056000000    -5.399000000    -2.075000000
H     0.109000000    -4.866000000    -2.117000000
C     2.707000000    -6.676000000    -3.298000000
H     3.065000000    -7.043000000    -4.256000000
C     3.578000000    -6.708000000    -2.112000000
H     4.562000000    -7.165000000    -2.048000000
C     3.033000000    -6.124000000    -0.952000000
H     3.624000000    -6.017000000    -0.046000000
C     1.787000000    -5.496000000    -0.938000000
O     1.380000000    -5.003000000     0.348000000
C     2.166000000    -4.249000000     1.239000000
C     2.274000000    -4.626000000     2.541000000
H     1.773000000    -5.507000000     2.935000000
C     2.922000000    -3.764000000     3.463000000
O     2.976000000    -4.156000000     4.783000000
C     2.586000000    -3.353000000     5.839000000
C     3.435000000    -3.332000000     6.960000000
H     4.377000000    -3.873000000     6.955000000
C     3.036000000    -2.606000000     8.103000000
H     3.796000000    -2.448000000     8.863000000
C     1.811000000    -1.902000000     8.022000000
H     1.408000000    -1.471000000     8.935000000
C     0.998000000    -1.867000000     6.916000000
C     1.393000000    -2.702000000     5.823000000
H     0.763000000    -2.751000000     4.939000000
C    -0.447000000    -1.929000000     1.759000000
H    -0.006000000    -2.546000000     2.537000000
C     0.216000000    -0.800000000     1.301000000
H     0.945000000    -0.380000000     1.989000000
C    -0.261000000    -0.168000000     0.101000000
C     0.502000000     1.129000000    -0.302000000
H     0.091000000     1.885000000     0.371000000
H     1.570000000     0.978000000    -0.135000000
H     0.414000000     1.345000000    -1.369000000
C    -1.296000000    -0.712000000    -0.598000000
H    -1.734000000    -0.262000000    -1.485000000
C    -1.964000000    -1.832000000    -0.099000000
H    -2.729000000    -2.277000000    -0.730000000
C    -1.542000000    -2.437000000     1.072000000
C    -2.139000000    -3.703000000     1.592000000
O    -2.887000000    -4.216000000     0.808000000
O    -1.928000000    -4.193000000     2.708000000
O    -7.872000000    -5.372000000     2.399000000
H    -7.766000000    -6.304000000     2.209000000
H    -7.180000000    -4.944000000     1.896000000
O    -5.450000000    -3.759000000     1.372000000
H    -5.637000000    -3.217000000     0.606000000
H    -4.511000000    -3.939000000     1.314000000
O    -6.274000000    -2.992000000    -1.881000000
H    -7.027000000    -2.982000000    -1.290000000
H    -6.656000000    -3.065000000    -2.755000000
O    -7.024000000    -7.665000000     1.297000000
H    -7.633000000    -8.318000000     0.951000000
H    -6.568000000    -7.329000000     0.526000000
O    -3.307000000    -6.803000000     0.951000000
H    -4.022000000    -6.968000000     0.337000000
H    -3.125000000    -5.867000000     0.861000000
O    -3.655000000    -6.628000000     5.744000000
H    -3.796000000    -7.094000000     4.920000000
H    -3.747000000    -7.301000000     6.419000000
O    -4.710000000    -6.700000000     3.245000000
H    -4.822000000    -5.864000000     2.793000000
H    -4.439000000    -7.309000000     2.558000000
O    -0.313000000    -7.200000000     1.116000000
H     0.142000000    -6.377000000     0.935000000
H    -1.156000000    -6.932000000     1.480000000
O    -2.361000000    -7.006000000    -2.271000000
H    -2.675000000    -6.135000000    -2.027000000
H    -2.636000000    -7.112000000    -3.182000000
O    -5.580000000    -6.993000000    -0.984000000
H    -6.154000000    -7.114000000    -1.741000000
H    -5.016000000    -6.259000000    -1.226000000
O    -2.981000000    -9.089000000     3.992000000
H    -2.689000000   -10.001000000     4.006000000
H    -2.182000000    -8.580000000     4.131000000
O    -3.998000000    -4.802000000    -1.655000000
H    -4.684000000    -4.177000000    -1.889000000
H    -3.468000000    -4.344000000    -1.002000000
O    -1.506000000    -4.837000000     6.984000000
H    -1.888000000    -5.041000000     7.837000000
H    -2.167000000    -5.121000000     6.352000000
O    -0.854000000    -5.917000000     4.365000000
H    -0.636000000    -5.361000000     5.113000000
H    -1.237000000    -5.318000000     3.724000000
O    -6.083000000    -1.331000000     6.217000000
H    -6.276000000    -2.216000000     6.528000000
H    -6.068000000    -1.411000000     5.263000000
O    -6.479000000    -2.430000000     3.779000000
H    -7.178000000    -3.014000000     3.484000000
H    -5.676000000    -2.834000000     3.451000000
O    -3.883000000    -4.142000000     4.314000000
H    -3.087000000    -3.944000000     3.821000000
H    -3.807000000    -5.072000000     4.528000000
O    -0.150000000    -8.197000000     5.625000000
H    -0.860000000    -8.226000000     6.267000000
H    -0.316000000    -7.401000000     5.120000000
O    -2.226000000    -9.039000000    -0.606000000
H    -2.171000000    -8.313000000    -1.228000000
H    -2.440000000    -8.623000000     0.229000000
