218
-1462.21930
C    -3.434000000     0.316000000     2.267000000
H    -3.186000000    -0.733000000     2.122000000
C    -3.959000000     1.055000000     1.210000000
C    -4.277000000     2.409000000     1.489000000
H    -4.649000000     3.139000000     0.775000000
C    -4.140000000     0.461000000    -0.213000000
O    -4.799000000    -0.807000000    -0.302000000
H    -3.125000000     0.253000000    -0.581000000
O    -4.749000000     1.357000000    -1.140000000
C    -3.943000000     1.699000000    -2.205000000
C    -3.265000000     2.891000000    -2.144000000
H    -3.335000000     3.558000000    -1.288000000
C    -2.265000000     3.161000000    -2.989000000
O    -1.476000000     4.178000000    -2.796000000
C    -1.917000000     2.266000000    -4.049000000
C    -0.738000000     2.461000000    -4.992000000
H    -1.026000000     1.954000000    -5.916000000
C     0.502000000     1.821000000    -4.482000000
C     0.823000000     0.553000000    -4.968000000
H     0.115000000     0.099000000    -5.656000000
H    -0.464000000     3.448000000    -5.370000000
C    -2.689000000     1.128000000    -4.137000000
H    -2.589000000     0.283000000    -4.814000000
C    -3.699000000     0.791000000    -3.216000000
C    -4.417000000    -0.532000000    -3.274000000
H    -4.418000000    -0.834000000    -4.324000000
H    -5.470000000    -0.584000000    -2.992000000
C    -3.798000000    -1.599000000    -2.390000000
C    -3.111000000    -2.623000000    -3.022000000
H    -3.135000000    -2.625000000    -4.109000000
C    -4.017000000    -1.720000000    -1.023000000
C    -3.396000000    -2.673000000    -0.280000000
H    -3.456000000    -2.718000000     0.804000000
C    -2.630000000    -3.681000000    -0.836000000
O    -1.902000000    -4.529000000     0.000000000
C    -0.517000000    -4.251000000     0.179000000
C    -0.073000000    -4.651000000     1.591000000
C     1.180000000    -5.109000000     1.890000000
H     1.948000000    -5.164000000     1.122000000
C    -0.978000000    -4.405000000     2.655000000
H    -1.984000000    -4.014000000     2.526000000
O     0.283000000    -4.965000000    -0.775000000
H    -0.348000000    -3.171000000     0.055000000
C    -2.479000000    -3.631000000    -2.292000000
C    -1.617000000    -4.599000000    -3.007000000
H    -1.973000000    -4.736000000    -4.031000000
H    -1.554000000    -5.597000000    -2.569000000
C    -0.191000000    -4.029000000    -2.963000000
C     0.231000000    -3.118000000    -3.960000000
H    -0.412000000    -2.807000000    -4.780000000
C     0.655000000    -4.302000000    -1.930000000
C     1.887000000    -3.684000000    -1.803000000
H     2.436000000    -3.816000000    -0.874000000
C     2.323000000    -2.840000000    -2.742000000
O     3.505000000    -2.133000000    -2.519000000
C     3.433000000    -0.870000000    -1.877000000
C     4.393000000    -0.860000000    -0.665000000
C     4.872000000    -1.986000000    -0.038000000
H     4.635000000    -2.991000000    -0.377000000
C     4.678000000     0.378000000    -0.062000000
H     4.332000000     1.343000000    -0.425000000
O     3.853000000     0.117000000    -2.870000000
H     2.415000000    -0.606000000    -1.555000000
C     1.475000000    -2.573000000    -3.841000000
C     1.993000000    -1.615000000    -4.875000000
H     1.507000000    -1.669000000    -5.851000000
H     3.027000000    -1.847000000    -5.139000000
C     1.900000000    -0.148000000    -4.386000000
C     2.772000000     0.609000000    -3.538000000
C     2.410000000     1.875000000    -3.108000000
H     3.002000000     2.337000000    -2.321000000
C     1.281000000     2.498000000    -3.578000000
O     0.867000000     3.736000000    -3.062000000
C    -0.284000000     3.784000000    -2.205000000
H    -0.350000000     2.786000000    -1.747000000
C     0.041000000     4.813000000    -1.137000000
C    -0.891000000     5.759000000    -0.711000000
H    -1.863000000     5.873000000    -1.185000000
C     1.276000000     4.705000000    -0.512000000
H     1.961000000     3.933000000    -0.854000000
C     1.645000000     5.600000000     0.505000000
O     2.893000000     5.512000000     1.080000000
C     0.687000000     6.468000000     0.988000000
H     0.899000000     7.021000000     1.899000000
C    -0.539000000     6.573000000     0.371000000
O    -1.456000000     7.378000000     1.000000000
C    -2.738000000     7.014000000     1.443000000
C    -2.938000000     5.731000000     2.062000000
H    -2.103000000     5.100000000     2.356000000
C    -3.845000000     7.740000000     1.093000000
H    -3.616000000     8.701000000     0.640000000
C    -5.156000000     7.350000000     1.409000000
H    -6.017000000     8.002000000     1.286000000
C    -5.307000000     6.132000000     2.036000000
H    -6.313000000     5.815000000     2.298000000
C    -4.254000000     5.344000000     2.328000000
O    -4.514000000     4.214000000     3.092000000
C    -4.055000000     2.936000000     2.774000000
C    -3.422000000     2.154000000     3.788000000
H    -3.194000000     2.507000000     4.790000000
C    -3.184000000     0.860000000     3.512000000
O    -2.668000000     0.079000000     4.511000000
C    -3.026000000    -1.203000000     4.730000000
C    -2.073000000    -2.206000000     4.729000000
H    -1.032000000    -2.029000000     4.472000000
C    -4.331000000    -1.543000000     5.038000000
H    -5.144000000    -0.826000000     4.954000000
C    -4.720000000    -2.833000000     5.229000000
H    -5.747000000    -3.179000000     5.318000000
C    -3.722000000    -3.898000000     5.273000000
H    -4.002000000    -4.948000000     5.265000000
C    -2.381000000    -3.549000000     5.043000000
O    -1.406000000    -4.500000000     5.036000000
C    -0.572000000    -4.716000000     3.983000000
C     0.627000000    -5.316000000     4.241000000
H     0.801000000    -5.676000000     5.252000000
C     1.568000000    -5.455000000     3.182000000
O     2.792000000    -6.086000000     3.510000000
C     3.934000000    -5.780000000     2.815000000
C     4.392000000    -4.502000000     2.613000000
H     3.768000000    -3.698000000     2.994000000
C     4.515000000    -6.888000000     2.179000000
H     4.058000000    -7.848000000     2.407000000
C     5.698000000    -6.723000000     1.504000000
H     6.174000000    -7.616000000     1.108000000
C     6.241000000    -5.442000000     1.390000000
H     7.160000000    -5.295000000     0.827000000
C     5.611000000    -4.325000000     1.890000000
O     6.219000000    -3.112000000     1.625000000
C     5.634000000    -1.971000000     1.144000000
C     5.822000000    -0.711000000     1.772000000
H     6.416000000    -0.602000000     2.676000000
C     5.332000000     0.439000000     1.208000000
O     5.439000000     1.587000000     1.910000000
C     5.308000000     2.854000000     1.412000000
C     6.220000000     3.238000000     0.398000000
H     7.071000000     2.611000000     0.146000000
C     5.942000000     4.317000000    -0.350000000
H     6.628000000     4.540000000    -1.164000000
C     4.846000000     5.115000000    -0.128000000
H     4.635000000     6.001000000    -0.721000000
C     3.930000000     4.678000000     0.845000000
C     4.115000000     3.541000000     1.608000000
H     3.404000000     3.286000000     2.390000000
C     0.417000000     1.338000000     2.125000000
H     0.186000000     2.248000000     2.673000000
C    -0.196000000     1.042000000     0.886000000
H    -1.026000000     1.646000000     0.530000000
C     0.286000000    -0.010000000     0.159000000
C    -0.377000000    -0.319000000    -1.107000000
H     0.153000000    -0.962000000    -1.812000000
H    -1.372000000    -0.744000000    -0.959000000
H    -0.505000000     0.587000000    -1.704000000
C     1.293000000    -0.807000000     0.617000000
H     1.656000000    -1.694000000     0.105000000
C     1.868000000    -0.581000000     1.866000000
H     2.570000000    -1.311000000     2.260000000
C     1.484000000     0.520000000     2.611000000
C     2.264000000     0.858000000     3.862000000
O     3.309000000     0.328000000     4.020000000
O     1.866000000     1.838000000     4.515000000
O     6.787000000    -1.413000000     5.989000000
H     6.076000000    -1.831000000     6.476000000
H     6.381000000    -0.647000000     5.584000000
O     1.141000000     0.841000000     6.796000000
H     1.916000000     0.529000000     7.264000000
H     1.490000000     1.265000000     6.012000000
O     2.041000000    -3.674000000     8.084000000
H     1.970000000    -2.779000000     8.417000000
H     2.525000000    -3.586000000     7.263000000
O     8.713000000     1.983000000     4.039000000
H     9.531000000     2.475000000     3.978000000
H     8.045000000     2.648000000     4.207000000
O     5.456000000     0.773000000     5.506000000
H     5.896000000     1.554000000     5.171000000
H     4.601000000     0.775000000     5.074000000
O     3.377000000     5.142000000     7.660000000
H     3.962000000     5.816000000     7.313000000
H     3.273000000     5.368000000     8.584000000
O    -0.615000000     1.193000000     8.607000000
H     0.041000000     1.103000000     7.916000000
H    -0.184000000     1.722000000     9.278000000
O     3.919000000     1.252000000     7.690000000
H     4.395000000     1.805000000     8.310000000
H     4.488000000     1.208000000     6.922000000
O    -2.635000000     1.227000000     7.065000000
H    -2.379000000     0.812000000     6.241000000
H    -1.817000000     1.311000000     7.555000000
O     4.145000000    -4.278000000     6.125000000
H     3.789000000    -3.579000000     5.577000000
H     4.939000000    -4.559000000     5.669000000
O    -0.438000000     2.820000000     5.598000000
H    -0.577000000     1.937000000     5.940000000
H     0.279000000     2.724000000     4.971000000
O     3.654000000     4.069000000     5.227000000
H     3.439000000     4.275000000     6.137000000
H     3.219000000     3.233000000     5.062000000
O     6.348000000     3.500000000     4.251000000
H     6.681000000     4.369000000     4.475000000
H     5.397000000     3.582000000     4.322000000
O     3.110000000    -1.995000000     5.083000000
H     2.382000000    -1.606000000     5.566000000
H     3.399000000    -1.303000000     4.487000000
O     3.299000000     6.553000000     4.179000000
H     3.794000000     6.452000000     3.366000000
H     3.185000000     5.659000000     4.502000000
O     2.188000000    -1.168000000     8.759000000
H     1.821000000    -0.917000000     9.607000000
H     2.879000000    -0.525000000     8.597000000
O    -0.612000000     6.223000000     4.926000000
H    -0.577000000     5.353000000     5.324000000
H    -1.540000000     6.363000000     4.737000000
O     0.639000000     4.325000000     7.669000000
H     0.313000000     3.938000000     6.856000000
H     1.089000000     3.605000000     8.112000000
O     7.443000000     3.216000000     7.089000000
H     8.220000000     2.659000000     7.138000000
H     7.366000000     3.437000000     6.161000000
