218
-1498.19216
C    -3.065000000    -0.264000000     2.644000000
H    -2.935000000    -1.269000000     2.250000000
C    -3.711000000     0.708000000     1.929000000
C    -3.943000000     1.957000000     2.461000000
H    -4.316000000     2.758000000     1.827000000
C    -3.982000000     0.394000000     0.475000000
O    -4.557000000    -0.916000000     0.342000000
H    -3.039000000     0.417000000    -0.091000000
O    -4.888000000     1.403000000    -0.099000000
C    -4.402000000     1.979000000    -1.246000000
C    -3.711000000     3.159000000    -1.111000000
H    -3.756000000     3.634000000    -0.134000000
C    -2.709000000     3.460000000    -2.009000000
O    -1.812000000     4.459000000    -1.724000000
C    -2.610000000     2.739000000    -3.246000000
C    -1.614000000     3.184000000    -4.263000000
H    -2.005000000     2.969000000    -5.260000000
C    -0.226000000     2.507000000    -4.010000000
C     0.083000000     1.353000000    -4.679000000
H    -0.641000000     0.947000000    -5.381000000
H    -1.546000000     4.273000000    -4.278000000
C    -3.459000000     1.642000000    -3.421000000
H    -3.354000000     0.963000000    -4.264000000
C    -4.280000000     1.212000000    -2.398000000
C    -5.015000000    -0.107000000    -2.535000000
H    -5.311000000    -0.247000000    -3.577000000
H    -5.933000000    -0.209000000    -1.953000000
C    -4.193000000    -1.324000000    -2.051000000
C    -3.556000000    -2.132000000    -3.017000000
H    -3.575000000    -1.721000000    -4.024000000
C    -4.169000000    -1.763000000    -0.683000000
C    -3.460000000    -2.942000000    -0.321000000
H    -3.363000000    -3.180000000     0.735000000
C    -2.794000000    -3.674000000    -1.307000000
O    -2.048000000    -4.685000000    -0.785000000
C    -0.602000000    -4.524000000    -0.617000000
C    -0.027000000    -5.122000000     0.657000000
C     1.311000000    -5.481000000     0.738000000
H     1.887000000    -5.356000000    -0.175000000
C    -0.878000000    -5.185000000     1.824000000
H    -1.860000000    -4.719000000     1.842000000
O     0.050000000    -5.014000000    -1.810000000
H    -0.425000000    -3.440000000    -0.560000000
C    -2.859000000    -3.335000000    -2.690000000
C    -2.013000000    -4.127000000    -3.748000000
H    -2.408000000    -4.111000000    -4.766000000
H    -2.040000000    -5.206000000    -3.587000000
C    -0.601000000    -3.545000000    -3.701000000
C    -0.210000000    -2.457000000    -4.434000000
H    -0.907000000    -2.055000000    -5.165000000
C     0.356000000    -4.078000000    -2.776000000
C     1.650000000    -3.547000000    -2.691000000
H     2.450000000    -3.930000000    -2.061000000
C     2.016000000    -2.492000000    -3.493000000
O     3.208000000    -1.812000000    -3.196000000
C     3.113000000    -0.691000000    -2.275000000
C     4.121000000    -0.690000000    -1.135000000
C     4.811000000    -1.815000000    -0.829000000
H     4.638000000    -2.725000000    -1.399000000
C     4.336000000     0.489000000    -0.416000000
H     3.724000000     1.364000000    -0.623000000
O     3.229000000     0.515000000    -2.978000000
H     2.124000000    -0.683000000    -1.794000000
C     1.096000000    -1.892000000    -4.362000000
C     1.414000000    -0.635000000    -5.137000000
H     0.717000000    -0.562000000    -5.974000000
H     2.429000000    -0.676000000    -5.538000000
C     1.207000000     0.654000000    -4.368000000
C     2.122000000     1.203000000    -3.415000000
C     1.816000000     2.429000000    -2.850000000
H     2.516000000     2.819000000    -2.115000000
C     0.682000000     3.104000000    -3.123000000
O     0.430000000     4.267000000    -2.493000000
C    -0.436000000     4.241000000    -1.413000000
H    -0.364000000     3.187000000    -1.107000000
C     0.095000000     5.076000000    -0.256000000
C    -0.777000000     5.507000000     0.793000000
H    -1.849000000     5.351000000     0.694000000
C     1.468000000     5.230000000    -0.164000000
H     2.039000000     4.854000000    -1.009000000
C     1.971000000     5.955000000     0.900000000
O     3.331000000     6.149000000     1.048000000
C     1.152000000     6.505000000     1.874000000
H     1.492000000     7.151000000     2.679000000
C    -0.231000000     6.289000000     1.858000000
O    -1.133000000     6.844000000     2.755000000
C    -2.372000000     6.411000000     3.097000000
C    -2.468000000     5.032000000     3.486000000
H    -1.595000000     4.384000000     3.466000000
C    -3.482000000     7.240000000     3.075000000
H    -3.254000000     8.284000000     2.872000000
C    -4.746000000     6.823000000     3.476000000
H    -5.611000000     7.481000000     3.453000000
C    -4.839000000     5.496000000     3.892000000
H    -5.754000000     5.042000000     4.265000000
C    -3.722000000     4.633000000     3.896000000
O    -3.989000000     3.373000000     4.392000000
C    -3.620000000     2.176000000     3.825000000
C    -2.927000000     1.214000000     4.539000000
H    -2.628000000     1.446000000     5.558000000
C    -2.708000000    -0.050000000     3.954000000
O    -2.032000000    -0.962000000     4.750000000
C    -2.459000000    -2.261000000     4.850000000
C    -1.543000000    -3.312000000     4.495000000
H    -0.587000000    -2.938000000     4.139000000
C    -3.708000000    -2.636000000     5.339000000
H    -4.394000000    -1.853000000     5.649000000
C    -3.991000000    -3.967000000     5.529000000
H    -4.985000000    -4.206000000     5.898000000
C    -3.176000000    -4.997000000     4.946000000
H    -3.532000000    -6.024000000     4.918000000
C    -1.909000000    -4.673000000     4.530000000
O    -1.102000000    -5.636000000     4.132000000
C    -0.295000000    -5.518000000     3.014000000
C     1.024000000    -5.979000000     3.085000000
H     1.286000000    -6.373000000     4.063000000
C     1.867000000    -5.855000000     1.930000000
O     3.260000000    -6.184000000     2.005000000
C     4.329000000    -5.808000000     1.143000000
C     4.818000000    -4.452000000     1.135000000
H     4.195000000    -3.743000000     1.674000000
C     5.184000000    -6.803000000     0.601000000
H     5.037000000    -7.880000000     0.616000000
C     6.294000000    -6.366000000    -0.103000000
H     6.944000000    -7.144000000    -0.495000000
C     6.738000000    -5.033000000    -0.166000000
H     7.650000000    -4.743000000    -0.680000000
C     6.006000000    -4.116000000     0.559000000
O     6.495000000    -2.860000000     0.513000000
C     5.768000000    -1.770000000     0.171000000
C     5.986000000    -0.566000000     0.953000000
H     6.671000000    -0.511000000     1.795000000
C     5.278000000     0.554000000     0.589000000
O     5.370000000     1.753000000     1.362000000
C     5.307000000     3.003000000     0.692000000
C     5.912000000     3.287000000    -0.535000000
H     6.429000000     2.534000000    -1.125000000
C     5.737000000     4.528000000    -1.229000000
H     6.172000000     4.817000000    -2.182000000
C     4.884000000     5.474000000    -0.650000000
H     4.632000000     6.349000000    -1.244000000
C     4.245000000     5.232000000     0.579000000
C     4.498000000     4.018000000     1.240000000
H     3.922000000     3.699000000     2.105000000
C     0.551000000     1.632000000     2.144000000
H     0.411000000     2.583000000     2.652000000
C    -0.181000000     1.310000000     0.986000000
H    -0.850000000     2.065000000     0.583000000
C     0.043000000     0.060000000     0.319000000
C    -0.549000000    -0.209000000    -1.045000000
H    -1.458000000    -0.813000000    -1.002000000
H    -0.870000000     0.631000000    -1.665000000
H     0.146000000    -0.745000000    -1.695000000
C     0.855000000    -0.880000000     0.933000000
H     0.911000000    -1.893000000     0.543000000
C     1.637000000    -0.554000000     2.003000000
H     2.284000000    -1.300000000     2.457000000
C     1.497000000     0.737000000     2.627000000
C     2.317000000     1.148000000     3.857000000
O     2.932000000     0.248000000     4.435000000
O     2.164000000     2.261000000     4.355000000
O     3.323000000    -3.487000000     4.011000000
H     4.100000000    -2.930000000     4.065000000
H     3.667000000    -4.380000000     4.019000000
O     0.976000000     1.727000000     6.681000000
H     1.416000000     1.729000000     5.831000000
H     1.634000000     2.054000000     7.293000000
O     0.269000000    -0.556000000     7.525000000
H     0.388000000    -1.079000000     6.732000000
H     0.252000000     0.349000000     7.215000000
O     2.135000000     6.586000000     6.150000000
H     1.800000000     7.263000000     6.738000000
H     1.452000000     5.915000000     6.144000000
O     5.020000000    -1.406000000     4.332000000
H     4.350000000    -0.803000000     4.010000000
H     5.833000000    -1.094000000     3.935000000
O     3.027000000     3.188000000     8.434000000
H     3.396000000     2.694000000     7.702000000
H     3.282000000     2.691000000     9.211000000
O     0.611000000     4.643000000     8.794000000
H     1.468000000     5.064000000     8.859000000
H     0.676000000     4.084000000     8.020000000
O     7.643000000    -0.312000000     4.665000000
H     8.525000000    -0.639000000     4.487000000
H     7.638000000    -0.135000000     5.606000000
O     0.421000000     4.251000000     4.964000000
H     1.090000000     3.664000000     4.613000000
H    -0.111000000     3.695000000     5.533000000
O     6.865000000     2.118000000     7.132000000
H     7.395000000     1.982000000     7.917000000
H     6.202000000     1.429000000     7.168000000
O     1.373000000    -1.898000000     5.469000000
H     1.905000000    -2.586000000     5.068000000
H     1.752000000    -1.082000000     5.143000000
O     4.687000000     6.242000000     5.149000000
H     4.804000000     5.292000000     5.128000000
H     3.771000000     6.365000000     5.400000000
O     4.370000000     3.522000000     5.125000000
H     4.671000000     2.817000000     5.699000000
H     3.593000000     3.165000000     4.695000000
O     8.299000000     1.863000000     2.944000000
H     7.914000000     2.577000000     3.453000000
H     7.792000000     1.091000000     3.193000000
O    -0.829000000     6.176000000     6.333000000
H    -1.153000000     6.979000000     5.924000000
H    -0.499000000     5.651000000     5.604000000
O     4.083000000     1.303000000     6.691000000
H     3.891000000     0.575000000     7.282000000
H     3.843000000     0.978000000     5.824000000
O     3.888000000    -1.274000000     6.901000000
H     3.907000000    -1.286000000     5.944000000
H     3.257000000    -1.954000000     7.136000000
O     6.382000000    -1.888000000     7.452000000
H     5.465000000    -1.711000000     7.241000000
H     6.755000000    -2.224000000     6.637000000
O     7.007000000     3.483000000     4.854000000
H     6.927000000     3.114000000     5.734000000
H     6.104000000     3.580000000     4.552000000
