218
-1477.01843
C    -2.316000000    -0.469000000     3.541000000
H    -2.018000000    -1.353000000     2.982000000
C    -3.366000000     0.278000000     2.959000000
C    -3.878000000     1.484000000     3.557000000
H    -4.696000000     1.964000000     3.026000000
C    -3.725000000    -0.122000000     1.523000000
O    -4.029000000    -1.572000000     1.551000000
H    -2.954000000     0.044000000     0.755000000
O    -4.879000000     0.551000000     1.041000000
C    -4.724000000     1.052000000    -0.219000000
C    -4.197000000     2.326000000    -0.359000000
H    -4.029000000     2.936000000     0.525000000
C    -3.789000000     2.803000000    -1.615000000
O    -3.112000000     4.043000000    -1.641000000
C    -3.814000000     1.994000000    -2.726000000
C    -3.141000000     2.512000000    -4.022000000
H    -3.678000000     2.173000000    -4.911000000
C    -1.685000000     2.203000000    -4.152000000
C    -1.329000000     1.090000000    -4.803000000
H    -2.096000000     0.528000000    -5.330000000
H    -3.301000000     3.591000000    -4.080000000
C    -4.386000000     0.742000000    -2.590000000
H    -4.395000000     0.059000000    -3.435000000
C    -4.819000000     0.231000000    -1.346000000
C    -5.287000000    -1.203000000    -1.103000000
H    -5.903000000    -1.524000000    -1.945000000
H    -5.976000000    -1.180000000    -0.256000000
C    -4.149000000    -2.168000000    -0.910000000
C    -3.612000000    -2.863000000    -1.995000000
H    -3.900000000    -2.615000000    -3.014000000
C    -3.675000000    -2.378000000     0.411000000
C    -2.732000000    -3.433000000     0.570000000
H    -2.435000000    -3.625000000     1.598000000
C    -2.178000000    -4.110000000    -0.505000000
O    -1.188000000    -4.939000000    -0.133000000
C     0.063000000    -4.444000000    -0.462000000
C     1.101000000    -4.933000000     0.528000000
C     2.366000000    -5.409000000     0.137000000
H     2.662000000    -5.702000000    -0.867000000
C     0.883000000    -4.599000000     1.905000000
H    -0.079000000    -4.161000000     2.162000000
O     0.567000000    -4.841000000    -1.765000000
H     0.075000000    -3.351000000    -0.340000000
C    -2.564000000    -3.798000000    -1.825000000
C    -1.933000000    -4.417000000    -3.082000000
H    -2.611000000    -4.439000000    -3.938000000
H    -1.592000000    -5.439000000    -2.905000000
C    -0.643000000    -3.684000000    -3.493000000
C    -0.607000000    -2.634000000    -4.421000000
H    -1.445000000    -2.463000000    -5.091000000
C     0.533000000    -3.892000000    -2.716000000
C     1.693000000    -3.170000000    -2.952000000
H     2.529000000    -3.336000000    -2.278000000
C     1.637000000    -2.082000000    -3.821000000
O     2.755000000    -1.313000000    -3.897000000
C     2.675000000    -0.064000000    -3.196000000
C     3.933000000     0.080000000    -2.301000000
C     4.673000000    -1.041000000    -1.824000000
H     4.333000000    -2.060000000    -1.993000000
C     4.356000000     1.357000000    -2.090000000
H     3.910000000     2.201000000    -2.610000000
O     2.324000000     1.021000000    -4.134000000
H     1.907000000    -0.232000000    -2.426000000
C     0.495000000    -1.768000000    -4.535000000
C     0.424000000    -0.588000000    -5.551000000
H    -0.338000000    -0.745000000    -6.318000000
H     1.362000000    -0.546000000    -6.109000000
C     0.058000000     0.760000000    -4.942000000
C     1.009000000     1.442000000    -4.205000000
C     0.610000000     2.481000000    -3.456000000
H     1.432000000     2.860000000    -2.854000000
C    -0.695000000     2.914000000    -3.437000000
O    -1.022000000     4.073000000    -2.774000000
C    -1.683000000     3.895000000    -1.473000000
H    -1.595000000     2.893000000    -1.027000000
C    -1.101000000     4.723000000    -0.329000000
C    -1.898000000     5.560000000     0.402000000
H    -2.929000000     5.773000000     0.132000000
C     0.156000000     4.397000000     0.125000000
H     0.758000000     3.613000000    -0.326000000
C     0.740000000     4.990000000     1.250000000
O     2.089000000     4.661000000     1.549000000
C    -0.072000000     5.803000000     2.006000000
H     0.409000000     6.352000000     2.812000000
C    -1.361000000     6.053000000     1.612000000
O    -2.151000000     6.662000000     2.527000000
C    -3.169000000     5.990000000     3.169000000
C    -2.942000000     4.840000000     3.936000000
H    -1.926000000     4.462000000     3.857000000
C    -4.443000000     6.502000000     3.245000000
H    -4.509000000     7.383000000     2.611000000
C    -5.424000000     6.030000000     4.132000000
H    -6.408000000     6.482000000     4.224000000
C    -5.091000000     4.930000000     4.900000000
H    -5.821000000     4.388000000     5.497000000
C    -3.897000000     4.236000000     4.741000000
O    -3.666000000     3.100000000     5.428000000
C    -3.312000000     1.881000000     4.763000000
C    -2.227000000     1.168000000     5.299000000
H    -1.635000000     1.516000000     6.142000000
C    -1.724000000     0.035000000     4.732000000
O    -0.825000000    -0.660000000     5.424000000
C    -0.689000000    -2.105000000     5.352000000
C     0.433000000    -2.698000000     4.713000000
H     1.253000000    -2.149000000     4.257000000
C    -1.642000000    -2.868000000     5.989000000
H    -2.463000000    -2.460000000     6.573000000
C    -1.585000000    -4.235000000     5.957000000
H    -2.309000000    -4.819000000     6.520000000
C    -0.491000000    -4.876000000     5.352000000
H    -0.324000000    -5.950000000     5.380000000
C     0.503000000    -4.086000000     4.692000000
O     1.669000000    -4.534000000     4.140000000
C     1.874000000    -4.840000000     2.832000000
C     3.124000000    -5.271000000     2.470000000
H     3.879000000    -5.347000000     3.249000000
C     3.329000000    -5.628000000     1.120000000
O     4.559000000    -6.150000000     0.708000000
C     5.300000000    -5.374000000    -0.067000000
C     5.476000000    -3.972000000     0.069000000
H     4.893000000    -3.481000000     0.844000000
C     6.157000000    -6.019000000    -0.942000000
H     6.172000000    -7.106000000    -0.911000000
C     6.992000000    -5.276000000    -1.845000000
H     7.649000000    -5.751000000    -2.570000000
C     7.187000000    -3.950000000    -1.611000000
H     8.014000000    -3.475000000    -2.132000000
C     6.365000000    -3.252000000    -0.656000000
O     6.576000000    -1.846000000    -0.449000000
C     5.830000000    -0.827000000    -1.032000000
C     6.240000000     0.513000000    -0.810000000
H     7.185000000     0.708000000    -0.310000000
C     5.498000000     1.597000000    -1.286000000
O     5.816000000     2.905000000    -0.930000000
C     4.892000000     3.908000000    -0.747000000
C     5.141000000     5.124000000    -1.352000000
H     5.950000000     5.210000000    -2.073000000
C     4.349000000     6.196000000    -0.992000000
H     4.681000000     7.097000000    -1.502000000
C     3.327000000     6.051000000    -0.069000000
H     2.704000000     6.884000000     0.248000000
C     3.099000000     4.831000000     0.577000000
C     3.869000000     3.782000000     0.229000000
H     3.791000000     2.782000000     0.649000000
C     0.742000000     0.679000000     2.071000000
H     0.446000000     1.201000000     2.978000000
C    -0.094000000     0.511000000     0.984000000
H    -1.038000000     1.045000000     1.051000000
C     0.319000000    -0.321000000    -0.055000000
C    -0.568000000    -0.692000000    -1.233000000
H    -1.275000000    -1.471000000    -0.938000000
H    -0.986000000     0.184000000    -1.733000000
H    -0.016000000    -1.195000000    -2.030000000
C     1.560000000    -1.027000000     0.101000000
H     1.810000000    -1.714000000    -0.704000000
C     2.298000000    -0.818000000     1.247000000
H     3.201000000    -1.422000000     1.295000000
C     2.016000000     0.091000000     2.187000000
C     2.838000000     0.294000000     3.454000000
O     3.454000000    -0.631000000     3.854000000
O     2.829000000     1.377000000     4.015000000
O     6.820000000    -4.511000000     4.037000000
H     6.080000000    -3.970000000     4.310000000
H     6.505000000    -5.411000000     4.125000000
O     3.477000000     1.991000000     6.941000000
H     4.060000000     1.246000000     7.087000000
H     2.933000000     1.727000000     6.199000000
O     0.976000000    -1.106000000     8.027000000
H     0.019000000    -1.120000000     8.028000000
H     1.204000000    -0.249000000     8.386000000
O     2.647000000     5.847000000     6.156000000
H     3.567000000     6.037000000     5.976000000
H     2.481000000     5.018000000     5.707000000
O     4.672000000    -2.822000000     4.444000000
H     4.276000000    -2.049000000     4.043000000
H     4.091000000    -3.038000000     5.174000000
O     7.688000000    -1.652000000     4.233000000
H     7.282000000    -2.494000000     4.024000000
H     6.959000000    -1.097000000     4.511000000
O     1.597000000     3.665000000     4.472000000
H     2.011000000     2.817000000     4.314000000
H     1.593000000     4.092000000     3.615000000
O     8.233000000     3.480000000     0.916000000
H     7.964000000     2.807000000     0.291000000
H     8.011000000     3.116000000     1.772000000
O     4.865000000     4.309000000     6.489000000
H     4.379000000     3.515000000     6.710000000
H     5.722000000     4.186000000     6.898000000
O     3.194000000    -1.123000000     6.404000000
H     2.382000000    -1.195000000     6.904000000
H     2.921000000    -1.203000000     5.490000000
O     1.753000000     4.446000000     8.254000000
H     2.423000000     4.218000000     8.898000000
H     2.149000000     5.145000000     7.734000000
O     2.169000000     1.213000000     9.141000000
H     2.411000000     1.616000000     8.308000000
H     2.598000000     1.754000000     9.803000000
O     4.647000000     3.545000000     3.882000000
H     4.550000000     3.776000000     4.806000000
H     4.090000000     2.775000000     3.769000000
O     9.566000000     0.771000000     2.562000000
H     9.062000000     1.442000000     3.023000000
H     9.180000000    -0.057000000     2.848000000
O    -0.152000000     3.569000000     6.758000000
H     0.312000000     3.410000000     5.936000000
H     0.505000000     3.961000000     7.332000000
O     5.654000000     0.295000000     4.948000000
H     5.339000000     0.225000000     5.849000000
H     4.906000000     0.034000000     4.411000000
O     5.775000000     0.317000000     7.704000000
H     6.655000000    -0.051000000     7.618000000
H     5.196000000    -0.446000000     7.705000000
O     5.010000000     6.137000000     3.955000000
H     5.790000000     5.969000000     4.485000000
H     4.692000000     5.266000000     3.716000000
O     7.196000000     2.271000000     2.994000000
H     6.646000000     3.053000000     3.043000000
H     6.901000000     1.726000000     3.724000000
