218
-1462.22311
C    -3.058000000    -1.573000000     2.498000000
H    -2.330000000    -2.233000000     2.034000000
C    -3.945000000    -1.041000000     1.588000000
C    -4.707000000     0.025000000     2.127000000
H    -5.433000000     0.528000000     1.494000000
C    -3.982000000    -1.401000000     0.087000000
O    -4.007000000    -2.859000000    -0.163000000
H    -2.949000000    -1.155000000    -0.202000000
O    -5.007000000    -0.821000000    -0.737000000
C    -4.493000000    -0.068000000    -1.774000000
C    -4.239000000     1.297000000    -1.608000000
H    -4.384000000     1.766000000    -0.638000000
C    -3.623000000     2.024000000    -2.637000000
O    -3.221000000     3.296000000    -2.242000000
C    -3.135000000     1.336000000    -3.751000000
C    -2.190000000     2.097000000    -4.710000000
H    -2.372000000     1.756000000    -5.731000000
C    -0.705000000     1.995000000    -4.356000000
C     0.108000000     0.965000000    -4.819000000
H    -0.345000000     0.323000000    -5.570000000
H    -2.561000000     3.125000000    -4.716000000
C    -3.317000000    -0.049000000    -3.856000000
H    -2.868000000    -0.540000000    -4.717000000
C    -3.986000000    -0.802000000    -2.850000000
C    -4.264000000    -2.332000000    -3.015000000
H    -4.221000000    -2.597000000    -4.074000000
H    -5.232000000    -2.635000000    -2.611000000
C    -3.107000000    -3.080000000    -2.404000000
C    -1.971000000    -3.343000000    -3.163000000
H    -1.815000000    -2.996000000    -4.182000000
C    -3.047000000    -3.363000000    -1.041000000
C    -1.995000000    -3.970000000    -0.502000000
H    -2.021000000    -4.033000000     0.583000000
C    -0.858000000    -4.362000000    -1.251000000
O     0.188000000    -5.011000000    -0.698000000
C     1.430000000    -4.246000000    -0.334000000
C     2.044000000    -4.704000000     0.958000000
C     3.466000000    -4.566000000     1.047000000
H     4.038000000    -4.099000000     0.250000000
C     1.381000000    -5.066000000     2.051000000
H     0.302000000    -5.199000000     2.048000000
O     2.369000000    -4.444000000    -1.463000000
H     1.149000000    -3.198000000    -0.153000000
C    -0.899000000    -4.062000000    -2.656000000
C     0.327000000    -4.350000000    -3.450000000
H    -0.075000000    -4.494000000    -4.456000000
H     0.726000000    -5.357000000    -3.314000000
C     1.425000000    -3.304000000    -3.410000000
C     1.426000000    -2.285000000    -4.316000000
H     0.671000000    -2.273000000    -5.098000000
C     2.449000000    -3.485000000    -2.463000000
C     3.394000000    -2.445000000    -2.368000000
H     4.155000000    -2.548000000    -1.599000000
C     3.334000000    -1.320000000    -3.161000000
O     4.055000000    -0.267000000    -2.824000000
C     3.444000000     0.878000000    -2.115000000
C     4.182000000     1.308000000    -0.785000000
C     4.880000000     0.404000000    -0.042000000
H     5.069000000    -0.492000000    -0.627000000
C     3.905000000     2.563000000    -0.189000000
H     3.270000000     3.284000000    -0.697000000
O     3.215000000     1.915000000    -3.094000000
H     2.461000000     0.536000000    -1.759000000
C     2.399000000    -1.263000000    -4.210000000
C     2.361000000    -0.087000000    -5.110000000
H     1.968000000    -0.270000000    -6.112000000
H     3.325000000     0.366000000    -5.351000000
C     1.446000000     0.982000000    -4.447000000
C     1.908000000     1.864000000    -3.536000000
C     1.113000000     2.852000000    -3.018000000
H     1.535000000     3.549000000    -2.299000000
C    -0.265000000     2.913000000    -3.398000000
O    -0.996000000     3.843000000    -2.706000000
C    -1.911000000     3.500000000    -1.721000000
H    -1.591000000     2.528000000    -1.317000000
C    -1.924000000     4.481000000    -0.527000000
C    -3.131000000     4.490000000     0.168000000
H    -3.918000000     3.826000000    -0.180000000
C    -0.772000000     5.162000000    -0.092000000
H     0.158000000     5.043000000    -0.642000000
C    -0.845000000     5.990000000     1.109000000
O     0.209000000     6.802000000     1.494000000
C    -2.123000000     6.060000000     1.676000000
H    -2.289000000     6.793000000     2.462000000
C    -3.220000000     5.387000000     1.253000000
O    -4.465000000     5.676000000     1.844000000
C    -5.298000000     4.719000000     2.355000000
C    -4.871000000     3.500000000     2.896000000
H    -3.838000000     3.169000000     2.964000000
C    -6.634000000     5.108000000     2.466000000
H    -7.003000000     6.000000000     1.966000000
C    -7.482000000     4.174000000     3.027000000
H    -8.545000000     4.387000000     3.110000000
C    -7.106000000     2.937000000     3.437000000
H    -7.799000000     2.158000000     3.744000000
C    -5.798000000     2.574000000     3.297000000
O    -5.502000000     1.377000000     3.871000000
C    -4.596000000     0.425000000     3.429000000
C    -3.719000000    -0.216000000     4.335000000
H    -3.679000000    -0.050000000     5.409000000
C    -2.951000000    -1.190000000     3.822000000
O    -2.039000000    -1.759000000     4.669000000
C    -1.663000000    -3.113000000     4.521000000
C    -0.303000000    -3.526000000     4.430000000
H     0.465000000    -2.758000000     4.387000000
C    -2.667000000    -4.135000000     4.603000000
H    -3.700000000    -3.884000000     4.831000000
C    -2.346000000    -5.466000000     4.590000000
H    -3.149000000    -6.198000000     4.620000000
C    -1.010000000    -5.879000000     4.626000000
H    -0.771000000    -6.939000000     4.653000000
C    -0.027000000    -4.911000000     4.561000000
O     1.258000000    -5.409000000     4.409000000
C     2.024000000    -5.273000000     3.230000000
C     3.367000000    -5.222000000     3.323000000
H     3.900000000    -5.356000000     4.260000000
C     4.134000000    -4.851000000     2.212000000
O     5.544000000    -4.727000000     2.320000000
C     6.191000000    -3.697000000     1.693000000
C     5.818000000    -2.432000000     2.114000000
H     5.014000000    -2.291000000     2.832000000
C     7.200000000    -3.848000000     0.747000000
H     7.495000000    -4.759000000     0.233000000
C     7.967000000    -2.757000000     0.388000000
H     8.763000000    -2.829000000    -0.349000000
C     7.613000000    -1.545000000     0.819000000
H     8.221000000    -0.707000000     0.488000000
C     6.514000000    -1.298000000     1.658000000
O     6.125000000    -0.039000000     2.040000000
C     5.397000000     0.788000000     1.192000000
C     5.234000000     2.058000000     1.710000000
H     5.789000000     2.396000000     2.581000000
C     4.476000000     3.003000000     1.014000000
O     4.189000000     4.161000000     1.647000000
C     3.433000000     5.223000000     1.168000000
C     4.030000000     6.148000000     0.216000000
H     5.067000000     5.944000000    -0.038000000
C     3.348000000     7.249000000    -0.176000000
H     3.673000000     7.782000000    -1.065000000
C     1.997000000     7.406000000     0.116000000
H     1.389000000     8.151000000    -0.391000000
C     1.494000000     6.566000000     1.128000000
C     2.195000000     5.473000000     1.685000000
H     1.746000000     4.780000000     2.391000000
C    -0.534000000     0.978000000     2.374000000
H    -1.200000000     1.682000000     2.866000000
C    -0.889000000     0.612000000     1.062000000
H    -1.822000000     0.955000000     0.621000000
C     0.013000000    -0.043000000     0.190000000
C    -0.315000000    -0.414000000    -1.228000000
H    -0.852000000     0.372000000    -1.763000000
H     0.554000000    -0.589000000    -1.866000000
H    -0.768000000    -1.399000000    -1.361000000
C     1.214000000    -0.445000000     0.734000000
H     1.952000000    -0.895000000     0.074000000
C     1.563000000    -0.109000000     2.040000000
H     2.501000000    -0.501000000     2.423000000
C     0.687000000     0.575000000     2.890000000
C     1.063000000     0.786000000     4.261000000
O     2.019000000     0.167000000     4.812000000
O     0.348000000     1.578000000     4.902000000
O     4.453000000    -3.761000000     6.674000000
H     4.190000000    -3.166000000     5.972000000
H     3.815000000    -3.607000000     7.371000000
O    -1.173000000     0.323000000     6.720000000
H    -0.711000000     0.760000000     6.006000000
H    -1.689000000    -0.359000000     6.290000000
O    -0.862000000    -2.601000000     8.466000000
H    -0.878000000    -2.290000000     9.371000000
H    -0.031000000    -2.279000000     8.117000000
O     2.232000000     1.577000000    10.139000000
H     1.653000000     2.072000000    10.719000000
H     2.079000000     0.661000000    10.371000000
O     4.057000000    -1.616000000     5.077000000
H     3.267000000    -1.104000000     5.248000000
H     4.777000000    -1.007000000     5.241000000
O     4.042000000     1.966000000     5.377000000
H     4.663000000     1.328000000     5.730000000
H     3.307000000     1.438000000     5.067000000
O    -0.828000000     3.266000000     9.894000000
H    -1.267000000     2.793000000     9.187000000
H    -0.636000000     4.128000000     9.523000000
O     1.352000000     5.808000000     5.313000000
H     0.715000000     6.522000000     5.335000000
H     0.823000000     5.012000000     5.373000000
O     2.760000000     5.780000000     8.464000000
H     3.102000000     5.050000000     7.947000000
H     3.113000000     6.561000000     8.038000000
O    -2.867000000     4.254000000     7.112000000
H    -1.932000000     4.292000000     6.909000000
H    -2.967000000     3.452000000     7.626000000
O     1.187000000    -0.945000000     7.189000000
H     0.368000000    -0.482000000     7.368000000
H     1.537000000    -0.520000000     6.406000000
O     1.998000000     2.898000000     7.694000000
H     2.110000000     2.329000000     8.456000000
H     2.513000000     2.478000000     7.004000000
O    -2.740000000     1.791000000     8.405000000
H    -3.192000000     1.161000000     8.967000000
H    -2.262000000     1.250000000     7.777000000
O     4.828000000     1.834000000     9.262000000
H     3.933000000     1.873000000     9.599000000
H     5.124000000     0.948000000     9.470000000
O     3.110000000    -2.417000000     8.545000000
H     2.467000000    -1.884000000     8.078000000
H     2.605000000    -2.859000000     9.227000000
O    -0.228000000     3.808000000     6.479000000
H    -0.083000000     3.008000000     5.974000000
H     0.359000000     3.725000000     7.231000000
O     4.113000000     4.946000000     5.133000000
H     4.015000000     4.002000000     5.007000000
H     3.241000000     5.302000000     4.964000000
O     5.977000000     0.114000000     5.893000000
H     6.226000000    -0.625000000     6.448000000
H     6.803000000     0.562000000     5.707000000
O     7.000000000     4.302000000     4.786000000
H     7.080000000     4.113000000     3.851000000
H     6.082000000     4.546000000     4.902000000
