218
-1472.20728
C    -2.839000000    -3.803000000     3.149000000
H    -2.333000000    -4.567000000     2.565000000
C    -3.480000000    -2.757000000     2.480000000
C    -3.967000000    -1.616000000     3.167000000
H    -4.429000000    -0.771000000     2.662000000
C    -3.412000000    -2.579000000     0.962000000
O    -3.223000000    -3.913000000     0.366000000
H    -2.630000000    -1.891000000     0.608000000
O    -4.573000000    -2.018000000     0.348000000
C    -4.416000000    -1.060000000    -0.701000000
C    -4.486000000     0.298000000    -0.449000000
H    -4.615000000     0.628000000     0.579000000
C    -4.290000000     1.274000000    -1.457000000
O    -4.161000000     2.610000000    -1.124000000
C    -3.963000000     0.797000000    -2.780000000
C    -3.569000000     1.830000000    -3.847000000
H    -3.946000000     1.557000000    -4.835000000
C    -2.026000000     2.167000000    -3.891000000
C    -1.191000000     1.433000000    -4.773000000
H    -1.540000000     0.582000000    -5.351000000
H    -4.163000000     2.746000000    -3.833000000
C    -3.971000000    -0.596000000    -3.055000000
H    -3.755000000    -0.889000000    -4.079000000
C    -4.234000000    -1.509000000    -2.036000000
C    -4.153000000    -2.991000000    -2.285000000
H    -4.416000000    -3.273000000    -3.306000000
H    -4.914000000    -3.527000000    -1.714000000
C    -2.767000000    -3.609000000    -1.987000000
C    -1.812000000    -3.669000000    -2.984000000
H    -2.064000000    -3.284000000    -3.969000000
C    -2.394000000    -4.015000000    -0.696000000
C    -1.055000000    -4.476000000    -0.468000000
H    -0.669000000    -4.722000000     0.518000000
C    -0.117000000    -4.423000000    -1.502000000
O     1.149000000    -4.670000000    -1.185000000
C     1.955000000    -3.528000000    -0.985000000
C     2.747000000    -3.574000000     0.319000000
C     3.848000000    -2.699000000     0.587000000
H     4.221000000    -1.988000000    -0.146000000
C     2.348000000    -4.397000000     1.369000000
H     1.566000000    -5.121000000     1.153000000
O     2.823000000    -3.379000000    -2.166000000
H     1.287000000    -2.661000000    -0.871000000
C    -0.485000000    -4.013000000    -2.774000000
C     0.565000000    -3.865000000    -3.885000000
H     0.047000000    -4.032000000    -4.832000000
H     1.296000000    -4.658000000    -3.717000000
C     1.397000000    -2.569000000    -3.855000000
C     1.032000000    -1.498000000    -4.665000000
H     0.108000000    -1.527000000    -5.237000000
C     2.473000000    -2.396000000    -3.024000000
C     3.265000000    -1.230000000    -3.063000000
H     4.020000000    -1.158000000    -2.285000000
C     2.881000000    -0.154000000    -3.868000000
O     3.515000000     1.046000000    -3.666000000
C     2.895000000     2.055000000    -2.867000000
C     3.768000000     2.750000000    -1.843000000
C     5.049000000     2.255000000    -1.464000000
H     5.383000000     1.373000000    -2.004000000
C     3.266000000     3.887000000    -1.160000000
H     2.260000000     4.253000000    -1.350000000
O     2.018000000     2.946000000    -3.648000000
H     2.174000000     1.461000000    -2.287000000
C     1.763000000    -0.276000000    -4.688000000
C     1.297000000     0.941000000    -5.527000000
H     0.869000000     0.537000000    -6.447000000
H     2.112000000     1.574000000    -5.884000000
C     0.191000000     1.696000000    -4.755000000
C     0.612000000     2.695000000    -3.810000000
C    -0.273000000     3.436000000    -3.032000000
H     0.101000000     4.298000000    -2.486000000
C    -1.585000000     3.185000000    -3.053000000
O    -2.439000000     3.866000000    -2.141000000
C    -2.828000000     3.137000000    -0.971000000
H    -2.203000000     2.241000000    -0.842000000
C    -2.534000000     3.923000000     0.310000000
C    -3.119000000     3.476000000     1.461000000
H    -3.701000000     2.558000000     1.484000000
C    -1.788000000     5.115000000     0.292000000
H    -1.166000000     5.196000000    -0.596000000
C    -1.595000000     5.901000000     1.430000000
O    -0.759000000     7.035000000     1.395000000
C    -2.268000000     5.533000000     2.602000000
H    -2.258000000     6.103000000     3.528000000
C    -3.008000000     4.304000000     2.613000000
O    -3.498000000     3.944000000     3.813000000
C    -4.324000000     2.841000000     4.138000000
C    -3.898000000     1.573000000     4.673000000
H    -2.870000000     1.437000000     4.998000000
C    -5.591000000     3.099000000     3.818000000
H    -5.889000000     4.063000000     3.414000000
C    -6.502000000     2.011000000     3.858000000
H    -7.490000000     2.055000000     3.407000000
C    -6.121000000     0.789000000     4.380000000
H    -6.672000000    -0.147000000     4.413000000
C    -4.787000000     0.599000000     4.801000000
O    -4.412000000    -0.639000000     5.337000000
C    -3.836000000    -1.646000000     4.590000000
C    -3.096000000    -2.622000000     5.228000000
H    -2.798000000    -2.580000000     6.273000000
C    -2.704000000    -3.768000000     4.498000000
O    -2.079000000    -4.867000000     5.143000000
C    -0.954000000    -5.543000000     4.658000000
C     0.185000000    -4.846000000     4.348000000
H     0.212000000    -3.760000000     4.337000000
C    -1.085000000    -6.940000000     4.429000000
H    -2.086000000    -7.345000000     4.549000000
C     0.027000000    -7.672000000     4.045000000
H     0.014000000    -8.741000000     3.851000000
C     1.210000000    -7.004000000     3.867000000
H     2.072000000    -7.554000000     3.498000000
C     1.325000000    -5.599000000     3.958000000
O     2.519000000    -4.963000000     3.787000000
C     2.836000000    -4.188000000     2.688000000
C     3.905000000    -3.329000000     2.896000000
H     4.279000000    -3.318000000     3.917000000
C     4.392000000    -2.544000000     1.902000000
O     5.427000000    -1.826000000     2.204000000
C     6.225000000    -1.227000000     1.262000000
C     6.203000000     0.149000000     1.219000000
H     5.515000000     0.713000000     1.844000000
C     7.034000000    -2.004000000     0.446000000
H     7.060000000    -3.091000000     0.452000000
C     7.695000000    -1.370000000    -0.565000000
H     8.078000000    -1.903000000    -1.432000000
C     7.656000000    -0.001000000    -0.726000000
H     8.247000000     0.546000000    -1.455000000
C     6.909000000     0.762000000     0.177000000
O     6.839000000     2.154000000     0.185000000
C     5.730000000     2.747000000    -0.318000000
C     5.253000000     3.895000000     0.253000000
H     5.753000000     4.201000000     1.168000000
C     4.014000000     4.444000000    -0.155000000
O     3.626000000     5.610000000     0.468000000
C     2.576000000     6.370000000     0.159000000
C     2.755000000     7.396000000    -0.751000000
H     3.678000000     7.479000000    -1.319000000
C     1.691000000     8.247000000    -1.054000000
H     1.658000000     9.008000000    -1.830000000
C     0.480000000     8.050000000    -0.351000000
H    -0.340000000     8.747000000    -0.503000000
C     0.356000000     7.051000000     0.636000000
C     1.446000000     6.222000000     0.946000000
H     1.452000000     5.494000000     1.752000000
C    -0.292000000     1.293000000     2.198000000
H    -0.996000000     1.953000000     2.698000000
C    -0.765000000     0.592000000     1.062000000
H    -1.830000000     0.571000000     0.847000000
C     0.144000000    -0.040000000     0.203000000
C    -0.399000000    -0.502000000    -1.135000000
H    -1.253000000     0.111000000    -1.431000000
H     0.383000000    -0.482000000    -1.896000000
H    -0.869000000    -1.485000000    -1.060000000
C     1.460000000    -0.126000000     0.503000000
H     2.160000000    -0.679000000    -0.118000000
C     1.890000000     0.532000000     1.679000000
H     2.853000000     0.308000000     2.132000000
C     1.029000000     1.256000000     2.498000000
C     1.596000000     1.975000000     3.723000000
O     2.797000000     2.096000000     3.939000000
O     0.867000000     2.565000000     4.435000000
O    -1.184000000     3.493000000     6.446000000
H    -0.651000000     3.142000000     5.732000000
H    -0.589000000     3.522000000     7.195000000
O     4.094000000     7.012000000     6.020000000
H     4.113000000     6.337000000     5.342000000
H     4.966000000     7.406000000     5.990000000
O     4.973000000     7.251000000     2.453000000
H     4.394000000     6.537000000     2.186000000
H     5.226000000     7.673000000     1.632000000
O    -3.458000000     4.894000000     6.746000000
H    -2.597000000     4.477000000     6.717000000
H    -3.965000000     4.445000000     6.069000000
O    -0.861000000     6.922000000     5.631000000
H    -0.419000000     7.647000000     5.190000000
H    -1.601000000     7.330000000     6.082000000
O    -0.144000000    -0.093000000     5.810000000
H     0.329000000    -0.923000000     5.752000000
H    -0.253000000     0.185000000     4.900000000
O     6.060000000     2.500000000     6.964000000
H     5.949000000     2.085000000     6.109000000
H     6.010000000     3.439000000     6.783000000
O     4.079000000    -0.498000000     4.897000000
H     4.243000000    -0.387000000     5.833000000
H     3.551000000     0.263000000     4.655000000
O     5.480000000     2.665000000     3.903000000
H     5.737000000     2.358000000     3.033000000
H     4.526000000     2.580000000     3.915000000
O     0.221000000     0.744000000     8.467000000
H    -0.365000000     0.509000000     7.747000000
H     0.957000000     1.185000000     8.043000000
O     0.316000000     4.110000000     8.630000000
H     1.110000000     4.622000000     8.477000000
H     0.452000000     3.707000000     9.488000000
O     6.527000000     5.278000000     3.851000000
H     5.841000000     5.868000000     3.540000000
H     6.134000000     4.406000000     3.804000000
O     3.085000000     5.063000000     4.193000000
H     2.135000000     5.154000000     4.115000000
H     3.234000000     4.118000000     4.206000000
O     4.225000000     0.394000000     8.592000000
H     4.901000000     1.040000000     8.386000000
H     3.419000000     0.771000000     8.239000000
O     6.623000000    -2.069000000     4.807000000
H     6.372000000    -1.289000000     4.311000000
H     6.142000000    -1.993000000     5.631000000
O     2.343000000     2.046000000     6.985000000
H     1.991000000     1.956000000     6.099000000
H     2.730000000     2.922000000     7.001000000
O     2.506000000     5.417000000     7.741000000
H     2.729000000     5.945000000     6.975000000
H     3.350000000     5.202000000     8.138000000
O     0.445000000     5.133000000     3.999000000
H     0.403000000     4.184000000     4.116000000
H    -0.080000000     5.487000000     4.716000000
O     1.766000000    -2.262000000     5.613000000
H     2.186000000    -2.971000000     6.100000000
H     2.474000000    -1.870000000     5.102000000
