218
-1477.44275
C    -2.417000000    -2.335000000     3.321000000
H    -1.710000000    -3.027000000     2.871000000
C    -3.351000000    -1.633000000     2.463000000
C    -4.087000000    -0.589000000     3.094000000
H    -4.786000000    -0.013000000     2.493000000
C    -3.483000000    -1.884000000     0.957000000
O    -3.338000000    -3.272000000     0.647000000
H    -2.649000000    -1.363000000     0.463000000
O    -4.712000000    -1.402000000     0.389000000
C    -4.585000000    -0.707000000    -0.748000000
C    -4.631000000     0.649000000    -0.615000000
H    -4.900000000     1.078000000     0.347000000
C    -4.292000000     1.456000000    -1.707000000
O    -4.267000000     2.805000000    -1.477000000
C    -3.921000000     0.847000000    -2.952000000
C    -3.411000000     1.653000000    -4.162000000
H    -3.724000000     1.054000000    -5.019000000
C    -1.934000000     1.875000000    -4.009000000
C    -1.049000000     1.104000000    -4.743000000
H    -1.430000000     0.299000000    -5.365000000
H    -3.816000000     2.667000000    -4.184000000
C    -3.981000000    -0.521000000    -3.075000000
H    -3.852000000    -1.020000000    -4.032000000
C    -4.371000000    -1.337000000    -2.005000000
C    -4.430000000    -2.791000000    -2.042000000
H    -4.771000000    -3.077000000    -3.040000000
H    -5.125000000    -3.204000000    -1.308000000
C    -3.046000000    -3.420000000    -1.786000000
C    -2.151000000    -3.604000000    -2.873000000
H    -2.470000000    -3.606000000    -3.912000000
C    -2.604000000    -3.634000000    -0.488000000
C    -1.381000000    -4.188000000    -0.223000000
H    -1.166000000    -4.531000000     0.785000000
C    -0.525000000    -4.284000000    -1.255000000
O     0.699000000    -4.717000000    -0.832000000
C     1.799000000    -3.798000000    -0.861000000
C     2.803000000    -4.072000000     0.237000000
C     4.140000000    -3.853000000     0.112000000
H     4.586000000    -3.602000000    -0.847000000
C     2.298000000    -4.153000000     1.546000000
H     1.224000000    -4.310000000     1.616000000
O     2.533000000    -3.877000000    -2.125000000
H     1.487000000    -2.759000000    -0.678000000
C    -0.805000000    -3.942000000    -2.596000000
C     0.185000000    -4.173000000    -3.742000000
H    -0.485000000    -4.369000000    -4.582000000
H     0.704000000    -5.129000000    -3.653000000
C     1.143000000    -3.027000000    -3.906000000
C     0.884000000    -1.952000000    -4.750000000
H    -0.078000000    -1.863000000    -5.247000000
C     2.229000000    -3.002000000    -3.099000000
C     3.007000000    -1.858000000    -3.056000000
H     3.881000000    -1.822000000    -2.411000000
C     2.765000000    -0.760000000    -3.871000000
O     3.456000000     0.423000000    -3.711000000
C     2.832000000     1.359000000    -2.723000000
C     3.754000000     1.863000000    -1.616000000
C     4.955000000     1.190000000    -1.222000000
H     5.434000000     0.499000000    -1.911000000
C     3.177000000     2.748000000    -0.720000000
H     2.204000000     3.179000000    -0.940000000
O     2.151000000     2.456000000    -3.392000000
H     2.000000000     0.794000000    -2.277000000
C     1.668000000    -0.771000000    -4.762000000
C     1.254000000     0.420000000    -5.568000000
H     0.737000000     0.148000000    -6.490000000
H     2.108000000     0.990000000    -5.940000000
C     0.328000000     1.296000000    -4.708000000
C     0.811000000     2.307000000    -3.859000000
C    -0.091000000     3.129000000    -3.148000000
H     0.302000000     3.889000000    -2.477000000
C    -1.477000000     2.907000000    -3.226000000
O    -2.269000000     3.718000000    -2.443000000
C    -2.933000000     3.360000000    -1.261000000
H    -2.368000000     2.503000000    -0.866000000
C    -2.827000000     4.424000000    -0.169000000
C    -3.757000000     4.404000000     0.903000000
H    -4.612000000     3.734000000     0.851000000
C    -1.670000000     5.316000000    -0.126000000
H    -0.941000000     5.411000000    -0.925000000
C    -1.582000000     6.180000000     0.961000000
O    -0.434000000     6.949000000     1.098000000
C    -2.512000000     6.127000000     2.013000000
H    -2.415000000     6.863000000     2.806000000
C    -3.526000000     5.196000000     2.038000000
O    -4.439000000     5.165000000     3.094000000
C    -5.177000000     4.031000000     3.403000000
C    -4.418000000     2.914000000     3.919000000
H    -3.352000000     3.082000000     4.049000000
C    -6.554000000     3.940000000     3.247000000
H    -7.018000000     4.884000000     2.973000000
C    -7.208000000     2.847000000     3.790000000
H    -8.280000000     2.950000000     3.935000000
C    -6.523000000     1.781000000     4.376000000
H    -7.089000000     0.921000000     4.725000000
C    -5.131000000     1.811000000     4.436000000
O    -4.452000000     0.828000000     5.059000000
C    -3.896000000    -0.277000000     4.478000000
C    -3.021000000    -0.969000000     5.271000000
H    -2.816000000    -0.683000000     6.300000000
C    -2.216000000    -1.940000000     4.651000000
O    -1.217000000    -2.466000000     5.397000000
C    -0.647000000    -3.652000000     5.148000000
C     0.706000000    -3.627000000     4.839000000
H     1.378000000    -2.780000000     4.949000000
C    -1.392000000    -4.824000000     4.935000000
H    -2.476000000    -4.873000000     4.869000000
C    -0.747000000    -6.006000000     4.518000000
H    -1.255000000    -6.937000000     4.279000000
C     0.652000000    -5.959000000     4.275000000
H     1.165000000    -6.848000000     3.916000000
C     1.371000000    -4.787000000     4.337000000
O     2.696000000    -4.632000000     3.982000000
C     3.150000000    -4.309000000     2.651000000
C     4.505000000    -4.221000000     2.509000000
H     5.253000000    -4.313000000     3.293000000
C     4.973000000    -3.955000000     1.211000000
O     6.322000000    -3.854000000     1.051000000
C     6.968000000    -2.780000000     0.466000000
C     6.526000000    -1.511000000     0.793000000
H     5.637000000    -1.356000000     1.399000000
C     8.010000000    -3.032000000    -0.469000000
H     8.312000000    -4.060000000    -0.653000000
C     8.603000000    -1.946000000    -1.050000000
H     9.462000000    -2.144000000    -1.687000000
C     8.159000000    -0.687000000    -0.786000000
H     8.499000000     0.219000000    -1.282000000
C     7.114000000    -0.466000000     0.110000000
O     6.622000000     0.773000000     0.441000000
C     5.496000000     1.411000000     0.030000000
C     4.854000000     2.222000000     0.950000000
H     5.240000000     2.524000000     1.920000000
C     3.759000000     2.991000000     0.489000000
O     3.305000000     3.879000000     1.411000000
C     2.769000000     5.125000000     0.921000000
C     3.591000000     6.063000000     0.324000000
H     4.650000000     5.849000000     0.201000000
C     3.099000000     7.280000000    -0.116000000
H     3.739000000     7.954000000    -0.681000000
C     1.768000000     7.502000000     0.143000000
H     1.400000000     8.474000000    -0.174000000
C     0.916000000     6.599000000     0.771000000
C     1.417000000     5.296000000     0.976000000
H     0.797000000     4.558000000     1.480000000
C    -0.657000000     0.748000000     2.885000000
H    -1.365000000     1.303000000     3.495000000
C    -1.083000000     0.721000000     1.558000000
H    -1.991000000     1.221000000     1.230000000
C    -0.237000000     0.081000000     0.612000000
C    -0.529000000     0.115000000    -0.833000000
H    -0.605000000     1.133000000    -1.222000000
H     0.182000000    -0.460000000    -1.430000000
H    -1.541000000    -0.267000000    -0.987000000
C     1.002000000    -0.441000000     1.065000000
H     1.679000000    -0.886000000     0.340000000
C     1.323000000    -0.478000000     2.348000000
H     2.263000000    -0.846000000     2.750000000
C     0.534000000     0.128000000     3.297000000
C     0.949000000     0.348000000     4.739000000
O     1.992000000    -0.116000000     5.189000000
O     0.369000000     1.138000000     5.469000000
O     1.475000000     2.585000000     7.458000000
H     1.176000000     2.285000000     6.600000000
H     1.849000000     1.805000000     7.867000000
O    -1.047000000     1.254000000     8.239000000
H    -0.699000000     1.784000000     7.522000000
H    -1.803000000     0.805000000     7.861000000
O     6.669000000    -2.554000000     4.262000000
H     5.911000000    -2.262000000     4.768000000
H     6.981000000    -3.332000000     4.723000000
O    -1.568000000     2.934000000     5.725000000
H    -1.128000000     3.692000000     5.342000000
H    -0.905000000     2.243000000     5.718000000
O     4.787000000     2.830000000     7.353000000
H     4.277000000     2.025000000     7.443000000
H     5.690000000     2.530000000     7.246000000
O     4.257000000    -1.565000000     5.652000000
H     4.781000000    -0.921000000     6.129000000
H     3.517000000    -1.064000000     5.309000000
O     3.872000000     1.898000000     4.846000000
H     3.436000000     2.674000000     5.199000000
H     3.286000000     1.174000000     5.063000000
O     6.419000000     1.409000000     3.850000000
H     5.510000000     1.157000000     4.007000000
H     6.794000000     1.512000000     4.725000000
O    -0.441000000     6.063000000     4.007000000
H     0.094000000     5.360000000     4.375000000
H    -0.747000000     5.717000000     3.169000000
O     0.925000000     0.674000000     9.917000000
H     1.191000000    -0.201000000     9.634000000
H     0.096000000     0.831000000     9.465000000
O     0.936000000     3.611000000     4.249000000
H     1.225000000     2.825000000     3.784000000
H     1.724000000     4.149000000     4.320000000
O    -3.646000000     4.478000000     7.141000000
H    -2.892000000     4.574000000     7.724000000
H    -3.372000000     3.817000000     6.504000000
O     3.298000000     4.794000000     4.163000000
H     3.703000000     4.487000000     3.352000000
H     4.024000000     5.160000000     4.670000000
O     4.908000000    -4.419000000     6.314000000
H     4.396000000    -3.662000000     6.030000000
H     4.290000000    -5.150000000     6.288000000
O     0.366000000    -1.049000000     7.295000000
H     0.549000000    -0.223000000     6.846000000
H    -0.246000000    -1.505000000     6.717000000
O     0.681000000     3.647000000     9.693000000
H     0.969000000     3.357000000     8.828000000
H     0.736000000     2.863000000    10.239000000
O     2.656000000     5.247000000     7.588000000
H     2.167000000     4.426000000     7.529000000
H     3.551000000     5.010000000     7.343000000
O     3.474000000     0.364000000     7.711000000
H     2.829000000    -0.122000000     7.196000000
H     3.583000000    -0.153000000     8.509000000
O     0.232000000    -3.077000000     9.271000000
H     0.321000000    -2.335000000     8.673000000
H    -0.331000000    -2.751000000     9.974000000
