218
-1475.39746
C    -3.136000000    -2.482000000     3.838000000
H    -3.237000000    -3.504000000     3.484000000
C    -3.372000000    -1.422000000     2.962000000
C    -3.422000000    -0.164000000     3.500000000
H    -3.713000000     0.646000000     2.835000000
C    -3.574000000    -1.587000000     1.462000000
O    -3.773000000    -2.982000000     1.183000000
H    -2.688000000    -1.130000000     0.996000000
O    -4.734000000    -0.891000000     1.024000000
C    -4.632000000    -0.317000000    -0.199000000
C    -4.569000000     1.100000000    -0.176000000
H    -4.513000000     1.680000000     0.742000000
C    -4.348000000     1.728000000    -1.383000000
O    -3.882000000     3.042000000    -1.300000000
C    -4.113000000     1.022000000    -2.563000000
C    -3.642000000     1.670000000    -3.895000000
H    -3.988000000     1.080000000    -4.746000000
C    -2.168000000     1.809000000    -3.973000000
C    -1.490000000     0.813000000    -4.776000000
H    -2.018000000    -0.072000000    -5.123000000
H    -4.133000000     2.634000000    -4.038000000
C    -4.413000000    -0.342000000    -2.551000000
H    -4.314000000    -0.902000000    -3.477000000
C    -4.553000000    -1.037000000    -1.395000000
C    -4.614000000    -2.558000000    -1.504000000
H    -4.878000000    -2.903000000    -2.506000000
H    -5.356000000    -3.067000000    -0.885000000
C    -3.238000000    -3.211000000    -1.151000000
C    -2.390000000    -3.625000000    -2.134000000
H    -2.769000000    -3.506000000    -3.146000000
C    -2.947000000    -3.430000000     0.210000000
C    -1.690000000    -3.928000000     0.544000000
H    -1.369000000    -3.870000000     1.581000000
C    -0.820000000    -4.389000000    -0.474000000
O     0.409000000    -4.879000000    -0.145000000
C     1.489000000    -3.919000000    -0.336000000
C     2.411000000    -3.962000000     0.850000000
C     3.666000000    -3.548000000     0.794000000
H     3.952000000    -3.185000000    -0.190000000
C     1.924000000    -4.362000000     2.096000000
H     0.875000000    -4.645000000     2.044000000
O     2.206000000    -4.051000000    -1.579000000
H     1.079000000    -2.902000000    -0.256000000
C    -1.139000000    -4.220000000    -1.824000000
C    -0.262000000    -4.633000000    -3.012000000
H    -0.842000000    -4.975000000    -3.873000000
H     0.363000000    -5.465000000    -2.681000000
C     0.645000000    -3.471000000    -3.328000000
C     0.257000000    -2.476000000    -4.271000000
H    -0.637000000    -2.657000000    -4.863000000
C     1.832000000    -3.237000000    -2.616000000
C     2.762000000    -2.208000000    -3.001000000
H     3.680000000    -2.037000000    -2.443000000
C     2.377000000    -1.264000000    -3.998000000
O     3.164000000    -0.138000000    -4.165000000
C     2.729000000     1.019000000    -3.415000000
C     3.849000000     1.702000000    -2.746000000
C     4.954000000     0.892000000    -2.276000000
H     5.128000000    -0.106000000    -2.670000000
C     3.761000000     3.034000000    -2.283000000
H     3.006000000     3.724000000    -2.648000000
O     2.029000000     1.895000000    -4.284000000
H     2.007000000     0.781000000    -2.620000000
C     1.092000000    -1.335000000    -4.548000000
C     0.547000000    -0.387000000    -5.533000000
H    -0.199000000    -0.929000000    -6.119000000
H     1.336000000     0.005000000    -6.179000000
C    -0.091000000     0.847000000    -4.819000000
C     0.645000000     1.831000000    -4.192000000
C    -0.064000000     2.808000000    -3.523000000
H     0.464000000     3.692000000    -3.174000000
C    -1.466000000     2.829000000    -3.376000000
O    -2.001000000     3.718000000    -2.528000000
C    -2.445000000     3.246000000    -1.247000000
H    -1.950000000     2.304000000    -0.970000000
C    -2.090000000     4.352000000    -0.213000000
C    -2.939000000     4.494000000     0.894000000
H    -3.873000000     3.939000000     0.928000000
C    -0.812000000     4.949000000    -0.166000000
H    -0.062000000     4.789000000    -0.936000000
C    -0.407000000     5.705000000     0.902000000
O     0.808000000     6.345000000     1.023000000
C    -1.335000000     5.986000000     1.952000000
H    -1.177000000     6.721000000     2.737000000
C    -2.548000000     5.316000000     1.945000000
O    -3.284000000     5.480000000     3.083000000
C    -3.900000000     4.455000000     3.749000000
C    -3.232000000     3.317000000     4.165000000
H    -2.195000000     3.193000000     3.864000000
C    -5.283000000     4.587000000     4.034000000
H    -5.851000000     5.478000000     3.784000000
C    -5.896000000     3.636000000     4.847000000
H    -6.920000000     3.794000000     5.174000000
C    -5.180000000     2.515000000     5.280000000
H    -5.665000000     1.667000000     5.755000000
C    -3.863000000     2.317000000     4.922000000
O    -3.283000000     1.249000000     5.454000000
C    -3.109000000     0.032000000     4.856000000
C    -2.840000000    -1.013000000     5.652000000
H    -2.636000000    -0.834000000     6.705000000
C    -2.731000000    -2.291000000     5.132000000
O    -2.435000000    -3.371000000     5.922000000
C    -1.521000000    -4.297000000     5.470000000
C    -0.226000000    -3.798000000     5.276000000
H     0.076000000    -2.779000000     5.504000000
C    -1.771000000    -5.630000000     5.207000000
H    -2.775000000    -5.929000000     5.498000000
C    -0.839000000    -6.513000000     4.764000000
H    -1.006000000    -7.543000000     4.457000000
C     0.429000000    -5.944000000     4.441000000
H     1.157000000    -6.600000000     3.971000000
C     0.728000000    -4.637000000     4.746000000
O     2.017000000    -4.233000000     4.527000000
C     2.588000000    -4.169000000     3.242000000
C     3.864000000    -3.588000000     3.143000000
H     4.410000000    -3.356000000     4.053000000
C     4.442000000    -3.399000000     1.922000000
O     5.784000000    -2.982000000     1.799000000
C     6.391000000    -2.545000000     0.598000000
C     6.536000000    -1.190000000     0.405000000
H     6.315000000    -0.570000000     1.270000000
C     6.680000000    -3.446000000    -0.484000000
H     6.470000000    -4.503000000    -0.339000000
C     7.121000000    -2.874000000    -1.699000000
H     7.196000000    -3.534000000    -2.559000000
C     7.374000000    -1.514000000    -1.856000000
H     7.845000000    -1.163000000    -2.770000000
C     6.994000000    -0.615000000    -0.805000000
O     7.006000000     0.760000000    -0.974000000
C     5.935000000     1.478000000    -1.425000000
C     5.798000000     2.803000000    -1.054000000
H     6.536000000     3.215000000    -0.371000000
C     4.822000000     3.619000000    -1.537000000
O     4.759000000     4.900000000    -1.014000000
C     3.773000000     5.819000000    -1.070000000
C     3.661000000     6.887000000    -1.971000000
H     4.466000000     6.983000000    -2.696000000
C     2.563000000     7.710000000    -1.909000000
H     2.387000000     8.474000000    -2.662000000
C     1.557000000     7.533000000    -0.991000000
H     0.695000000     8.195000000    -0.964000000
C     1.683000000     6.477000000    -0.047000000
C     2.787000000     5.655000000    -0.105000000
H     2.960000000     4.808000000     0.553000000
C    -0.338000000     1.745000000     1.809000000
H    -1.082000000     2.131000000     2.500000000
C    -0.857000000     0.988000000     0.734000000
H    -1.926000000     0.887000000     0.567000000
C     0.020000000     0.292000000    -0.094000000
C    -0.597000000    -0.502000000    -1.245000000
H    -0.443000000    -1.544000000    -0.956000000
H    -1.678000000    -0.357000000    -1.292000000
H    -0.055000000    -0.269000000    -2.164000000
C     1.338000000     0.298000000     0.209000000
H     2.066000000    -0.242000000    -0.390000000
C     1.871000000     1.125000000     1.186000000
H     2.945000000     1.285000000     1.225000000
C     1.020000000     1.924000000     1.988000000
C     1.436000000     2.935000000     3.022000000
O     2.601000000     3.170000000     3.186000000
O     0.562000000     3.244000000     3.844000000
O     4.740000000     7.041000000     5.180000000
H     4.328000000     7.816000000     5.562000000
H     4.559000000     7.111000000     4.243000000
O     2.265000000     8.448000000     4.933000000
H     2.284000000     7.551000000     4.600000000
H     2.027000000     8.357000000     5.856000000
O     3.129000000     5.636000000     7.463000000
H     2.258000000     5.467000000     7.823000000
H     3.009000000     5.595000000     6.515000000
O     1.776000000     8.978000000     2.170000000
H     2.127000000     8.849000000     3.051000000
H     1.726000000     8.097000000     1.800000000
O     0.553000000     5.902000000     8.145000000
H     0.174000000     5.659000000     7.300000000
H    -0.122000000     5.675000000     8.784000000
O    -0.164000000     4.883000000     5.831000000
H    -0.005000000     4.370000000     5.039000000
H    -0.629000000     4.284000000     6.416000000
O     0.337000000     1.250000000     5.557000000
H     0.541000000     0.594000000     4.890000000
H     0.329000000     2.080000000     5.082000000
O     0.521000000    -0.970000000     3.502000000
H     0.083000000    -0.416000000     2.856000000
H     1.406000000    -1.088000000     3.156000000
O     4.164000000     1.105000000     4.617000000
H     3.759000000     1.642000000     5.298000000
H     4.049000000     1.611000000     3.812000000
O     2.746000000     3.281000000     5.733000000
H     2.752000000     3.390000000     4.782000000
H     1.902000000     2.871000000     5.922000000
O    -1.463000000     2.587000000     7.020000000
H    -2.223000000     2.216000000     6.572000000
H    -0.728000000     2.043000000     6.735000000
O     7.400000000     3.834000000     4.255000000
H     7.998000000     3.728000000     3.516000000
H     6.527000000     3.767000000     3.868000000
O     6.705000000     0.074000000     5.362000000
H     6.557000000    -0.578000000     6.047000000
H     5.840000000     0.450000000     5.198000000
O     4.542000000     3.395000000     8.300000000
H     5.261000000     3.926000000     8.643000000
H     4.003000000     4.012000000     7.805000000
O     5.073000000     3.712000000     2.449000000
H     4.131000000     3.670000000     2.619000000
H     5.156000000     4.314000000     1.709000000
O     2.279000000     5.982000000     3.603000000
H     1.345000000     5.771000000     3.587000000
H     2.718000000     5.133000000     3.544000000
O     1.346000000    -0.094000000     8.159000000
H     1.930000000    -0.633000000     7.626000000
H     0.852000000     0.424000000     7.524000000
O     3.068000000    -1.130000000     6.558000000
H     4.010000000    -1.041000000     6.704000000
H     2.885000000    -0.549000000     5.819000000
O    -1.408000000     7.559000000     5.569000000
H    -0.902000000     7.508000000     6.380000000
H    -1.288000000     6.703000000     5.158000000
