218
-1463.01582
C    -3.812000000    -2.119000000     3.208000000
H    -3.948000000    -3.161000000     2.927000000
C    -4.059000000    -1.022000000     2.352000000
C    -4.079000000     0.272000000     2.894000000
H    -4.177000000     1.070000000     2.161000000
C    -4.021000000    -1.163000000     0.843000000
O    -4.243000000    -2.535000000     0.350000000
H    -3.023000000    -0.821000000     0.533000000
O    -4.894000000    -0.240000000     0.196000000
C    -4.457000000     0.392000000    -1.000000000
C    -4.149000000     1.744000000    -0.827000000
H    -4.267000000     2.137000000     0.179000000
C    -3.526000000     2.436000000    -1.799000000
O    -3.020000000     3.696000000    -1.546000000
C    -3.346000000     1.827000000    -3.109000000
C    -2.657000000     2.543000000    -4.271000000
H    -2.998000000     2.156000000    -5.234000000
C    -1.165000000     2.295000000    -4.099000000
C    -0.585000000     1.203000000    -4.688000000
H    -1.226000000     0.440000000    -5.123000000
H    -2.925000000     3.602000000    -4.268000000
C    -3.832000000     0.523000000    -3.235000000
H    -3.713000000     0.058000000    -4.211000000
C    -4.367000000    -0.243000000    -2.225000000
C    -4.738000000    -1.672000000    -2.389000000
H    -4.991000000    -1.921000000    -3.422000000
H    -5.652000000    -1.902000000    -1.837000000
C    -3.645000000    -2.697000000    -1.974000000
C    -2.780000000    -3.195000000    -2.935000000
H    -2.902000000    -2.810000000    -3.944000000
C    -3.389000000    -2.899000000    -0.616000000
C    -2.335000000    -3.675000000    -0.170000000
H    -2.278000000    -3.827000000     0.905000000
C    -1.441000000    -4.158000000    -1.106000000
O    -0.320000000    -4.928000000    -0.662000000
C     0.883000000    -4.293000000    -0.395000000
C     1.463000000    -4.607000000     0.968000000
C     2.812000000    -4.277000000     1.207000000
H     3.287000000    -3.720000000     0.403000000
C     0.683000000    -5.027000000     2.040000000
H    -0.371000000    -5.271000000     1.937000000
O     1.764000000    -4.530000000    -1.543000000
H     0.638000000    -3.223000000    -0.325000000
C    -1.674000000    -4.008000000    -2.466000000
C    -0.528000000    -4.430000000    -3.389000000
H    -1.020000000    -4.589000000    -4.351000000
H    -0.223000000    -5.425000000    -3.059000000
C     0.670000000    -3.423000000    -3.405000000
C     0.519000000    -2.204000000    -4.144000000
H    -0.363000000    -2.175000000    -4.779000000
C     1.743000000    -3.578000000    -2.554000000
C     2.724000000    -2.582000000    -2.545000000
H     3.564000000    -2.622000000    -1.856000000
C     2.628000000    -1.412000000    -3.351000000
O     3.586000000    -0.462000000    -3.256000000
C     3.270000000     0.724000000    -2.590000000
C     4.329000000     1.167000000    -1.656000000
C     5.000000000     0.240000000    -0.889000000
H     4.772000000    -0.812000000    -1.035000000
C     4.676000000     2.526000000    -1.715000000
H     4.143000000     3.230000000    -2.349000000
O     2.940000000     1.779000000    -3.584000000
H     2.387000000     0.531000000    -1.963000000
C     1.523000000    -1.305000000    -4.213000000
C     1.392000000    -0.253000000    -5.322000000
H     0.709000000    -0.550000000    -6.120000000
H     2.413000000    -0.035000000    -5.640000000
C     0.811000000     0.972000000    -4.600000000
C     1.579000000     1.870000000    -3.824000000
C     0.969000000     3.000000000    -3.272000000
H     1.529000000     3.673000000    -2.628000000
C    -0.393000000     3.189000000    -3.379000000
O    -0.964000000     4.203000000    -2.696000000
C    -1.572000000     3.811000000    -1.443000000
H    -1.191000000     2.830000000    -1.123000000
C    -1.132000000     4.815000000    -0.342000000
C    -2.006000000     5.126000000     0.710000000
H    -3.035000000     4.785000000     0.633000000
C     0.195000000     4.950000000    -0.082000000
H     0.858000000     4.449000000    -0.782000000
C     0.656000000     5.638000000     1.030000000
O     1.994000000     5.786000000     1.297000000
C    -0.289000000     6.082000000     1.977000000
H     0.092000000     6.662000000     2.814000000
C    -1.592000000     5.738000000     1.900000000
O    -2.478000000     6.048000000     2.877000000
C    -3.452000000     5.122000000     3.240000000
C    -3.104000000     3.925000000     3.802000000
H    -2.072000000     3.629000000     3.967000000
C    -4.822000000     5.329000000     2.984000000
H    -5.132000000     6.322000000     2.669000000
C    -5.785000000     4.367000000     3.227000000
H    -6.841000000     4.586000000     3.090000000
C    -5.382000000     3.197000000     3.852000000
H    -6.144000000     2.485000000     4.159000000
C    -4.033000000     2.944000000     4.170000000
O    -3.710000000     1.737000000     4.843000000
C    -3.852000000     0.520000000     4.277000000
C    -3.597000000    -0.579000000     5.070000000
H    -3.219000000    -0.422000000     6.077000000
C    -3.658000000    -1.872000000     4.526000000
O    -3.415000000    -2.892000000     5.388000000
C    -2.875000000    -4.065000000     5.037000000
C    -1.518000000    -4.199000000     4.733000000
H    -0.790000000    -3.392000000     4.696000000
C    -3.645000000    -5.177000000     5.084000000
H    -4.697000000    -4.921000000     5.184000000
C    -3.153000000    -6.400000000     4.737000000
H    -3.873000000    -7.203000000     4.604000000
C    -1.756000000    -6.549000000     4.591000000
H    -1.404000000    -7.547000000     4.342000000
C    -0.937000000    -5.462000000     4.608000000
O     0.475000000    -5.547000000     4.411000000
C     1.189000000    -5.046000000     3.337000000
C     2.539000000    -4.747000000     3.553000000
H     2.955000000    -4.963000000     4.534000000
C     3.392000000    -4.431000000     2.473000000
O     4.733000000    -4.160000000     2.730000000
C     5.599000000    -3.581000000     1.877000000
C     5.771000000    -2.213000000     1.934000000
H     5.272000000    -1.579000000     2.662000000
C     6.075000000    -4.251000000     0.743000000
H     5.987000000    -5.329000000     0.635000000
C     6.689000000    -3.578000000    -0.292000000
H     6.979000000    -4.039000000    -1.233000000
C     6.890000000    -2.206000000    -0.235000000
H     7.380000000    -1.699000000    -1.062000000
C     6.466000000    -1.480000000     0.905000000
O     6.571000000    -0.149000000     0.992000000
C     5.958000000     0.692000000     0.075000000
C     6.359000000     2.024000000    -0.034000000
H     7.181000000     2.373000000     0.586000000
C     5.722000000     2.936000000    -0.926000000
O     6.035000000     4.284000000    -0.832000000
C     5.046000000     5.248000000    -0.695000000
C     4.961000000     6.277000000    -1.681000000
H     5.738000000     6.416000000    -2.429000000
C     3.860000000     7.209000000    -1.616000000
H     3.849000000     8.061000000    -2.291000000
C     2.865000000     6.943000000    -0.698000000
H     1.948000000     7.528000000    -0.698000000
C     2.897000000     5.894000000     0.229000000
C     4.024000000     5.071000000     0.227000000
H     4.118000000     4.190000000     0.857000000
C     2.207000000     1.814000000     1.193000000
H     2.701000000     2.781000000     1.144000000
C     1.230000000     1.451000000     0.281000000
H     1.023000000     2.175000000    -0.502000000
C     0.898000000     0.085000000     0.242000000
C    -0.083000000    -0.376000000    -0.817000000
H    -0.619000000     0.510000000    -1.165000000
H     0.489000000    -0.769000000    -1.660000000
H    -0.762000000    -1.118000000    -0.390000000
C     1.357000000    -0.822000000     1.185000000
H     0.944000000    -1.827000000     1.180000000
C     2.251000000    -0.391000000     2.183000000
H     2.480000000    -1.069000000     3.001000000
C     2.685000000     0.926000000     2.144000000
C     3.815000000     1.321000000     3.073000000
O     4.464000000     0.626000000     3.816000000
O     4.086000000     2.506000000     3.160000000
O     2.037000000    -1.787000000     8.022000000
H     2.343000000    -2.616000000     8.391000000
H     2.330000000    -1.808000000     7.111000000
O     7.724000000     5.084000000     1.129000000
H     7.342000000     4.561000000     1.833000000
H     7.242000000     4.819000000     0.345000000
O     1.536000000     0.505000000     5.351000000
H     1.419000000     1.454000000     5.394000000
H     1.345000000     0.282000000     4.440000000
O     3.633000000    -1.192000000     5.584000000
H     4.241000000    -0.771000000     4.976000000
H     2.938000000    -0.545000000     5.713000000
O     9.594000000    -0.007000000     0.830000000
H     9.997000000    -0.538000000     0.144000000
H     8.657000000    -0.040000000     0.639000000
O     6.387000000     0.026000000     7.213000000
H     5.455000000     0.094000000     7.007000000
H     6.763000000     0.845000000     6.891000000
O     2.931000000     2.789000000     7.848000000
H     3.488000000     2.184000000     7.358000000
H     3.463000000     3.579000000     7.944000000
O     4.931000000     2.100000000     5.936000000
H     5.786000000     2.479000000     5.730000000
H     4.573000000     1.841000000     5.087000000
O     0.947000000     3.208000000     5.732000000
H     1.429000000     3.205000000     6.559000000
H     0.048000000     3.423000000     5.979000000
O     9.242000000     2.532000000     4.675000000
H     8.598000000     1.832000000     4.572000000
H     8.733000000     3.283000000     4.981000000
O     6.620000000     3.448000000     3.316000000
H     6.630000000     4.102000000     4.014000000
H     5.713000000     3.142000000     3.287000000
O     1.282000000     0.885000000     8.814000000
H     1.986000000     1.426000000     8.457000000
H     1.451000000     0.010000000     8.467000000
O     6.702000000     5.267000000     5.249000000
H     6.458000000     4.549000000     5.832000000
H     7.469000000     5.662000000     5.664000000
O     4.997000000    -3.145000000     7.163000000
H     4.664000000    -2.362000000     6.724000000
H     4.286000000    -3.413000000     7.745000000
O     2.777000000     6.999000000     3.992000000
H     3.060000000     6.157000000     4.349000000
H     2.225000000     6.770000000     3.244000000
O     4.809000000     5.335000000     7.380000000
H     4.324000000     6.010000000     7.854000000
H     4.291000000     5.178000000     6.591000000
O     7.323000000     0.742000000     4.112000000
H     7.271000000     1.367000000     3.390000000
H     6.558000000     0.178000000     3.998000000
O     3.408000000     4.523000000     4.868000000
H     2.526000000     4.259000000     5.132000000
H     3.700000000     3.827000000     4.280000000
O     7.535000000     2.565000000     6.965000000
H     8.381000000     2.117000000     6.970000000
H     7.514000000     3.047000000     7.792000000
