218
-1472.52098
C    -2.709000000    -2.492000000     3.780000000
H    -2.564000000    -3.466000000     3.321000000
C    -3.387000000    -1.514000000     3.029000000
C    -3.554000000    -0.250000000     3.570000000
H    -3.897000000     0.523000000     2.886000000
C    -3.605000000    -1.684000000     1.466000000
O    -3.782000000    -3.110000000     1.169000000
H    -2.698000000    -1.322000000     0.960000000
O    -4.786000000    -0.968000000     0.981000000
C    -4.651000000    -0.368000000    -0.361000000
C    -4.368000000     0.986000000    -0.367000000
H    -4.191000000     1.479000000     0.585000000
C    -4.101000000     1.621000000    -1.552000000
O    -3.852000000     2.984000000    -1.417000000
C    -3.980000000     0.898000000    -2.735000000
C    -3.559000000     1.533000000    -4.039000000
H    -3.990000000     0.921000000    -4.834000000
C    -2.050000000     1.664000000    -4.194000000
C    -1.278000000     0.771000000    -4.976000000
H    -1.786000000    -0.026000000    -5.513000000
H    -4.029000000     2.519000000    -4.039000000
C    -4.352000000    -0.408000000    -2.766000000
H    -4.426000000    -0.953000000    -3.704000000
C    -4.655000000    -1.074000000    -1.570000000
C    -4.811000000    -2.578000000    -1.594000000
H    -5.154000000    -2.928000000    -2.570000000
H    -5.524000000    -2.981000000    -0.871000000
C    -3.471000000    -3.261000000    -1.217000000
C    -2.656000000    -3.630000000    -2.310000000
H    -2.965000000    -3.448000000    -3.336000000
C    -3.045000000    -3.495000000     0.102000000
C    -1.845000000    -4.141000000     0.282000000
H    -1.614000000    -4.255000000     1.338000000
C    -0.927000000    -4.334000000    -0.765000000
O     0.344000000    -4.897000000    -0.418000000
C     1.356000000    -3.958000000    -0.469000000
C     2.310000000    -4.145000000     0.640000000
C     3.561000000    -3.533000000     0.669000000
H     3.953000000    -2.854000000    -0.084000000
C     1.776000000    -4.738000000     1.841000000
H     0.855000000    -5.315000000     1.803000000
O     2.049000000    -4.107000000    -1.650000000
H     0.837000000    -2.989000000    -0.441000000
C    -1.326000000    -4.211000000    -2.076000000
C    -0.358000000    -4.512000000    -3.237000000
H    -0.993000000    -4.766000000    -4.088000000
H     0.219000000    -5.361000000    -2.865000000
C     0.666000000    -3.395000000    -3.454000000
C     0.453000000    -2.431000000    -4.427000000
H    -0.486000000    -2.415000000    -4.974000000
C     1.827000000    -3.224000000    -2.629000000
C     2.666000000    -2.126000000    -2.784000000
H     3.398000000    -1.844000000    -2.031000000
C     2.359000000    -1.153000000    -3.730000000
O     3.151000000    -0.069000000    -3.692000000
C     2.637000000     1.142000000    -3.118000000
C     3.671000000     1.754000000    -2.197000000
C     4.732000000     1.006000000    -1.740000000
H     4.956000000     0.091000000    -2.282000000
C     3.394000000     3.008000000    -1.571000000
H     2.501000000     3.574000000    -1.823000000
O     2.110000000     2.029000000    -4.119000000
H     1.873000000     0.835000000    -2.387000000
C     1.250000000    -1.316000000    -4.593000000
C     0.929000000    -0.220000000    -5.590000000
H     0.382000000    -0.685000000    -6.413000000
H     1.884000000     0.201000000    -5.911000000
C     0.127000000     0.806000000    -4.889000000
C     0.703000000     1.906000000    -4.197000000
C    -0.112000000     2.840000000    -3.604000000
H     0.312000000     3.685000000    -3.069000000
C    -1.476000000     2.752000000    -3.609000000
O    -2.226000000     3.681000000    -2.938000000
C    -2.520000000     3.458000000    -1.583000000
H    -1.970000000     2.593000000    -1.184000000
C    -2.248000000     4.648000000    -0.664000000
C    -2.845000000     4.675000000     0.580000000
H    -3.656000000     3.989000000     0.809000000
C    -1.364000000     5.656000000    -1.016000000
H    -0.847000000     5.633000000    -1.971000000
C    -1.023000000     6.516000000    -0.020000000
O     0.059000000     7.349000000    -0.208000000
C    -1.590000000     6.558000000     1.292000000
H    -1.195000000     7.173000000     2.097000000
C    -2.507000000     5.579000000     1.550000000
O    -2.838000000     5.324000000     2.896000000
C    -3.742000000     4.396000000     3.388000000
C    -3.182000000     3.352000000     4.193000000
H    -2.114000000     3.428000000     4.382000000
C    -5.124000000     4.508000000     3.232000000
H    -5.550000000     5.257000000     2.569000000
C    -5.962000000     3.593000000     3.748000000
H    -7.042000000     3.690000000     3.662000000
C    -5.419000000     2.481000000     4.436000000
H    -6.025000000     1.654000000     4.797000000
C    -4.009000000     2.362000000     4.634000000
O    -3.428000000     1.352000000     5.418000000
C    -3.287000000     0.051000000     4.922000000
C    -2.707000000    -0.987000000     5.693000000
H    -2.405000000    -0.767000000     6.714000000
C    -2.363000000    -2.198000000     5.089000000
O    -1.795000000    -3.158000000     5.871000000
C    -1.148000000    -4.298000000     5.368000000
C     0.070000000    -4.253000000     4.768000000
H     0.600000000    -3.327000000     4.562000000
C    -1.636000000    -5.508000000     5.839000000
H    -2.472000000    -5.471000000     6.532000000
C    -0.968000000    -6.717000000     5.682000000
H    -1.383000000    -7.646000000     6.064000000
C     0.265000000    -6.696000000     5.101000000
H     0.940000000    -7.547000000     5.055000000
C     0.800000000    -5.447000000     4.633000000
O     2.090000000    -5.495000000     4.064000000
C     2.567000000    -4.802000000     2.997000000
C     3.858000000    -4.282000000     2.977000000
H     4.447000000    -4.398000000     3.883000000
C     4.335000000    -3.559000000     1.902000000
O     5.559000000    -2.989000000     2.069000000
C     6.249000000    -2.449000000     1.035000000
C     6.265000000    -1.101000000     0.732000000
H     5.565000000    -0.434000000     1.228000000
C     7.242000000    -3.295000000     0.422000000
H     7.361000000    -4.365000000     0.571000000
C     8.023000000    -2.769000000    -0.594000000
H     8.755000000    -3.384000000    -1.112000000
C     7.908000000    -1.455000000    -0.932000000
H     8.577000000    -1.049000000    -1.687000000
C     7.011000000    -0.603000000    -0.288000000
O     6.856000000     0.751000000    -0.512000000
C     5.689000000     1.492000000    -0.847000000
C     5.384000000     2.736000000    -0.236000000
H     6.004000000     3.189000000     0.534000000
C     4.296000000     3.530000000    -0.681000000
O     4.091000000     4.728000000     0.016000000
C     3.383000000     5.808000000    -0.474000000
C     3.991000000     6.744000000    -1.282000000
H     4.984000000     6.502000000    -1.652000000
C     3.285000000     7.871000000    -1.764000000
H     3.711000000     8.494000000    -2.546000000
C     1.942000000     8.014000000    -1.356000000
H     1.360000000     8.870000000    -1.686000000
C     1.305000000     7.062000000    -0.575000000
C     2.022000000     5.942000000    -0.183000000
H     1.536000000     5.207000000     0.454000000
C    -0.282000000     1.221000000     2.244000000
H    -0.842000000     1.785000000     2.985000000
C    -0.856000000     0.839000000     1.089000000
H    -1.922000000     1.001000000     0.957000000
C    -0.214000000     0.134000000     0.028000000
C    -0.865000000    -0.275000000    -1.242000000
H    -1.747000000     0.314000000    -1.502000000
H    -0.229000000    -0.280000000    -2.129000000
H    -1.139000000    -1.326000000    -1.131000000
C     1.183000000    -0.008000000     0.179000000
H     1.805000000    -0.418000000    -0.613000000
C     1.836000000     0.499000000     1.339000000
H     2.904000000     0.413000000     1.523000000
C     1.123000000     1.132000000     2.317000000
C     1.771000000     1.624000000     3.468000000
O     2.983000000     1.555000000     3.576000000
O     1.094000000     2.176000000     4.363000000
O     0.681000000    -0.394000000     7.870000000
H     0.971000000    -0.719000000     7.017000000
H     1.378000000     0.199000000     8.150000000
O    -0.606000000     1.550000000     9.959000000
H     0.039000000     1.390000000    10.649000000
H    -0.591000000     0.754000000     9.428000000
O    -0.509000000     5.110000000     7.316000000
H    -0.394000000     4.264000000     6.883000000
H    -1.270000000     4.987000000     7.883000000
O     4.497000000     4.067000000     3.564000000
H     4.399000000     4.285000000     2.638000000
H     4.106000000     3.198000000     3.649000000
O    -0.352000000     2.563000000     6.650000000
H    -0.045000000     2.428000000     5.754000000
H     0.294000000     2.113000000     7.195000000
O     1.856000000    -1.073000000     5.504000000
H     2.314000000    -0.245000000     5.359000000
H     1.302000000    -1.179000000     4.730000000
O     2.771000000     2.530000000    10.488000000
H     2.590000000     2.348000000     9.566000000
H     2.146000000     1.985000000    10.967000000
O     8.444000000     0.027000000     4.315000000
H     8.505000000    -0.044000000     3.363000000
H     7.691000000     0.599000000     4.465000000
O     4.787000000     0.158000000     7.796000000
H     5.496000000     0.596000000     8.265000000
H     5.121000000     0.046000000     6.906000000
O     2.752000000     3.552000000     6.101000000
H     2.327000000     3.164000000     5.337000000
H     2.702000000     4.496000000     5.948000000
O     7.129000000     2.652000000     4.127000000
H     7.952000000     3.090000000     4.343000000
H     6.452000000     3.219000000     4.495000000
O     3.187000000     7.391000000     5.814000000
H     2.951000000     7.260000000     6.732000000
H     4.021000000     7.861000000     5.846000000
O     5.954000000     4.849000000     5.758000000
H     5.378000000     5.095000000     6.482000000
H     5.389000000     4.865000000     4.986000000
O     5.405000000    -2.216000000     4.829000000
H     6.111000000    -2.285000000     4.186000000
H     5.186000000    -1.284000000     4.845000000
O     1.993000000     7.957000000     3.415000000
H     2.142000000     7.479000000     4.230000000
H     1.816000000     7.276000000     2.766000000
O     5.408000000     0.663000000     4.470000000
H     4.469000000     0.788000000     4.332000000
H     5.794000000     1.517000000     4.278000000
O     0.206000000     4.703000000     3.272000000
H    -0.746000000     4.772000000     3.200000000
H     0.355000000     3.832000000     3.642000000
O     2.471000000     1.631000000     7.969000000
H     3.187000000     1.038000000     7.740000000
H     2.562000000     2.363000000     7.360000000
O    -1.228000000     7.354000000     5.798000000
H    -1.035000000     7.797000000     6.624000000
H    -1.020000000     6.435000000     5.965000000
