218
-1466.88213
C    -3.579000000    -2.791000000     2.289000000
H    -2.847000000    -3.309000000     1.674000000
C    -4.286000000    -1.817000000     1.627000000
C    -4.974000000    -0.815000000     2.385000000
H    -5.541000000    -0.048000000     1.864000000
C    -4.100000000    -1.489000000     0.103000000
O    -4.245000000    -2.752000000    -0.563000000
H    -3.049000000    -1.216000000    -0.077000000
O    -4.965000000    -0.406000000    -0.462000000
C    -4.372000000     0.477000000    -1.347000000
C    -4.058000000     1.729000000    -0.862000000
H    -4.293000000     2.038000000     0.154000000
C    -3.411000000     2.691000000    -1.711000000
O    -2.972000000     3.884000000    -1.161000000
C    -3.134000000     2.327000000    -3.062000000
C    -2.406000000     3.302000000    -3.938000000
H    -2.727000000     3.160000000    -4.972000000
C    -0.852000000     3.208000000    -3.766000000
C    -0.091000000     2.290000000    -4.539000000
H    -0.498000000     1.652000000    -5.318000000
H    -2.772000000     4.303000000    -3.700000000
C    -3.554000000     1.037000000    -3.536000000
H    -3.440000000     0.725000000    -4.571000000
C    -4.090000000     0.151000000    -2.679000000
C    -4.411000000    -1.274000000    -3.171000000
H    -4.474000000    -1.125000000    -4.250000000
H    -5.415000000    -1.544000000    -2.837000000
C    -3.319000000    -2.270000000    -2.808000000
C    -2.273000000    -2.506000000    -3.704000000
H    -2.176000000    -1.903000000    -4.603000000
C    -3.302000000    -2.943000000    -1.557000000
C    -2.241000000    -3.738000000    -1.248000000
H    -2.232000000    -4.257000000    -0.293000000
C    -1.165000000    -3.900000000    -2.151000000
O    -0.042000000    -4.544000000    -1.727000000
C     1.051000000    -3.840000000    -1.077000000
C     1.587000000    -4.438000000     0.169000000
C     2.847000000    -4.149000000     0.629000000
H     3.481000000    -3.454000000     0.085000000
C     0.773000000    -5.277000000     0.866000000
H    -0.236000000    -5.414000000     0.488000000
O     2.085000000    -3.656000000    -2.041000000
H     0.645000000    -2.839000000    -0.872000000
C    -1.201000000    -3.261000000    -3.365000000
C    -0.038000000    -3.377000000    -4.318000000
H    -0.287000000    -3.207000000    -5.368000000
H     0.395000000    -4.379000000    -4.296000000
C     1.085000000    -2.378000000    -3.954000000
C     1.146000000    -1.144000000    -4.708000000
H     0.352000000    -0.959000000    -5.427000000
C     2.059000000    -2.631000000    -2.977000000
C     3.120000000    -1.728000000    -2.784000000
H     3.902000000    -1.816000000    -2.034000000
C     3.161000000    -0.543000000    -3.559000000
O     4.048000000     0.420000000    -3.043000000
C     3.417000000     1.456000000    -2.214000000
C     4.423000000     1.732000000    -1.036000000
C     5.159000000     0.693000000    -0.425000000
H     5.040000000    -0.308000000    -0.831000000
C     4.552000000     3.024000000    -0.484000000
H     4.036000000     3.879000000    -0.912000000
O     3.161000000     2.611000000    -2.936000000
H     2.483000000     1.040000000    -1.808000000
C     2.145000000    -0.196000000    -4.444000000
C     2.120000000     1.129000000    -5.205000000
H     1.616000000     1.075000000    -6.173000000
H     3.163000000     1.430000000    -5.327000000
C     1.306000000     2.081000000    -4.353000000
C     1.893000000     2.752000000    -3.270000000
C     1.221000000     3.701000000    -2.527000000
H     1.720000000     4.248000000    -1.731000000
C    -0.154000000     3.893000000    -2.752000000
O    -0.836000000     4.677000000    -1.839000000
C    -1.534000000     3.999000000    -0.802000000
H    -1.118000000     2.981000000    -0.814000000
C    -1.198000000     4.438000000     0.666000000
C    -1.967000000     3.820000000     1.660000000
H    -2.587000000     2.977000000     1.366000000
C    -0.213000000     5.403000000     0.866000000
H     0.433000000     5.823000000     0.099000000
C    -0.010000000     5.848000000     2.212000000
O     1.189000000     6.350000000     2.599000000
C    -0.726000000     5.238000000     3.197000000
H    -0.556000000     5.550000000     4.224000000
C    -1.660000000     4.198000000     2.954000000
O    -2.346000000     3.599000000     3.940000000
C    -3.676000000     3.150000000     4.082000000
C    -3.971000000     1.830000000     4.205000000
H    -3.189000000     1.077000000     4.145000000
C    -4.739000000     4.042000000     4.156000000
H    -4.462000000     5.093000000     4.113000000
C    -6.047000000     3.665000000     4.293000000
H    -6.841000000     4.407000000     4.272000000
C    -6.359000000     2.275000000     4.448000000
H    -7.380000000     1.928000000     4.588000000
C    -5.299000000     1.385000000     4.425000000
O    -5.561000000     0.035000000     4.558000000
C    -4.883000000    -0.860000000     3.774000000
C    -4.265000000    -1.906000000     4.429000000
H    -4.315000000    -1.898000000     5.514000000
C    -3.644000000    -2.907000000     3.660000000
O    -3.136000000    -3.992000000     4.411000000
C    -2.680000000    -5.166000000     3.743000000
C    -1.330000000    -5.355000000     3.499000000
H    -0.536000000    -4.662000000     3.766000000
C    -3.647000000    -6.084000000     3.351000000
H    -4.708000000    -5.855000000     3.402000000
C    -3.234000000    -7.261000000     2.722000000
H    -3.935000000    -8.028000000     2.402000000
C    -1.845000000    -7.503000000     2.549000000
H    -1.491000000    -8.392000000     2.034000000
C    -0.901000000    -6.504000000     2.854000000
O     0.457000000    -6.733000000     2.683000000
C     1.219000000    -5.847000000     2.075000000
C     2.471000000    -5.581000000     2.517000000
H     2.849000000    -5.948000000     3.467000000
C     3.317000000    -4.726000000     1.833000000
O     4.519000000    -4.397000000     2.439000000
C     5.461000000    -3.604000000     1.819000000
C     5.581000000    -2.218000000     2.060000000
H     5.084000000    -1.765000000     2.915000000
C     6.178000000    -4.129000000     0.763000000
H     6.159000000    -5.194000000     0.542000000
C     6.989000000    -3.322000000    -0.020000000
H     7.587000000    -3.654000000    -0.865000000
C     7.120000000    -1.937000000     0.233000000
H     7.658000000    -1.281000000    -0.447000000
C     6.452000000    -1.423000000     1.269000000
O     6.509000000    -0.070000000     1.503000000
C     5.828000000     0.889000000     0.778000000
C     5.912000000     2.206000000     1.310000000
H     6.436000000     2.485000000     2.220000000
C     5.319000000     3.231000000     0.638000000
O     5.413000000     4.534000000     1.191000000
C     4.455000000     5.556000000     1.142000000
C     4.594000000     6.570000000     0.159000000
H     5.418000000     6.453000000    -0.541000000
C     3.597000000     7.511000000     0.033000000
H     3.627000000     8.301000000    -0.713000000
C     2.458000000     7.445000000     0.841000000
H     1.628000000     8.127000000     0.676000000
C     2.380000000     6.495000000     1.860000000
C     3.354000000     5.520000000     1.947000000
H     3.196000000     4.628000000     2.548000000
C     1.284000000     1.984000000     2.096000000
H     1.999000000     2.800000000     2.163000000
C     0.978000000     1.463000000     0.849000000
H     1.331000000     1.835000000    -0.110000000
C     0.112000000     0.366000000     0.758000000
C    -0.329000000    -0.180000000    -0.573000000
H    -1.017000000    -0.972000000    -0.271000000
H    -0.815000000     0.643000000    -1.101000000
H     0.538000000    -0.531000000    -1.137000000
C    -0.461000000    -0.153000000     1.905000000
H    -1.199000000    -0.949000000     1.848000000
C    -0.246000000     0.425000000     3.162000000
H    -0.797000000     0.147000000     4.057000000
C     0.703000000     1.433000000     3.285000000
C     1.257000000     1.887000000     4.606000000
O     0.959000000     1.352000000     5.697000000
O     2.032000000     2.813000000     4.593000000
O     2.937000000    -3.170000000     7.338000000
H     3.105000000    -2.416000000     6.772000000
H     2.253000000    -2.871000000     7.937000000
O    -2.024000000    -2.541000000     6.492000000
H    -2.550000000    -2.883000000     7.215000000
H    -2.342000000    -3.012000000     5.722000000
O     1.744000000     7.818000000     5.598000000
H     1.848000000     6.872000000     5.705000000
H     1.098000000     8.064000000     6.260000000
O    -3.463000000     2.697000000     8.762000000
H    -3.035000000     3.118000000     8.016000000
H    -2.754000000     2.537000000     9.385000000
O     4.706000000     6.784000000     5.404000000
H     4.749000000     7.161000000     4.525000000
H     4.064000000     6.078000000     5.330000000
O     3.377000000     4.675000000     8.307000000
H     3.595000000     5.602000000     8.208000000
H     2.708000000     4.659000000     8.992000000
O     2.839000000    -0.664000000     6.207000000
H     2.287000000     0.106000000     6.068000000
H     3.707000000    -0.393000000     5.909000000
O     3.675000000     0.513000000     9.852000000
H     4.297000000     0.404000000     9.133000000
H     3.400000000     1.428000000     9.796000000
O     6.247000000     4.315000000     7.780000000
H     5.323000000     4.066000000     7.818000000
H     6.295000000     4.949000000     7.065000000
O     0.626000000     5.447000000     9.378000000
H    -0.024000000     5.565000000    10.070000000
H     0.269000000     4.747000000     8.830000000
O    -0.942000000    -0.048000000     7.422000000
H    -1.255000000    -0.751000000     6.853000000
H    -0.293000000     0.417000000     6.894000000
O    -2.403000000     4.086000000     6.793000000
H    -1.551000000     3.652000000     6.830000000
H    -2.642000000     4.066000000     5.866000000
O     7.435000000     3.712000000     4.958000000
H     6.527000000     3.788000000     4.664000000
H     7.892000000     4.425000000     4.512000000
O     5.045000000     0.901000000     5.505000000
H     4.798000000     1.694000000     5.028000000
H     5.530000000     1.220000000     6.266000000
O    -0.017000000    -2.498000000     8.278000000
H     0.014000000    -1.552000000     8.137000000
H    -0.819000000    -2.779000000     7.837000000
O    -0.802000000     1.630000000     9.646000000
H    -0.306000000     1.458000000    10.446000000
H    -0.841000000     0.783000000     9.201000000
O     4.563000000     3.624000000     4.974000000
H     3.692000000     3.297000000     4.748000000
H     4.409000000     4.244000000     5.687000000
O     2.188000000     5.136000000     5.729000000
H     2.179000000     4.847000000     6.642000000
H     2.034000000     4.337000000     5.224000000
O     0.431000000     3.212000000     7.545000000
H     0.778000000     2.540000000     6.958000000
H     0.061000000     2.721000000     8.278000000
