218
-1480.18463
C    -3.707000000    -1.821000000     1.882000000
H    -2.958000000    -2.523000000     1.524000000
C    -4.216000000    -0.906000000     0.924000000
C    -5.074000000     0.108000000     1.332000000
H    -5.487000000     0.862000000     0.667000000
C    -3.869000000    -1.091000000    -0.566000000
O    -3.950000000    -2.480000000    -0.963000000
H    -2.800000000    -0.858000000    -0.681000000
O    -4.683000000    -0.314000000    -1.452000000
C    -3.903000000     0.466000000    -2.274000000
C    -3.578000000     1.736000000    -1.851000000
H    -3.943000000     2.078000000    -0.886000000
C    -2.738000000     2.524000000    -2.659000000
O    -2.407000000     3.794000000    -2.200000000
C    -2.252000000     2.007000000    -3.856000000
C    -1.338000000     2.877000000    -4.686000000
H    -1.375000000     2.430000000    -5.681000000
C     0.127000000     2.750000000    -4.179000000
C     0.964000000     1.660000000    -4.705000000
H     0.619000000     1.062000000    -5.544000000
H    -1.527000000     3.953000000    -4.690000000
C    -2.545000000     0.660000000    -4.208000000
H    -2.053000000     0.143000000    -5.028000000
C    -3.393000000    -0.086000000    -3.407000000
C    -3.691000000    -1.512000000    -3.831000000
H    -3.604000000    -1.704000000    -4.903000000
H    -4.759000000    -1.719000000    -3.729000000
C    -2.771000000    -2.565000000    -3.117000000
C    -1.716000000    -3.093000000    -3.838000000
H    -1.551000000    -2.713000000    -4.843000000
C    -2.999000000    -2.956000000    -1.817000000
C    -2.071000000    -3.824000000    -1.237000000
H    -2.175000000    -4.162000000    -0.210000000
C    -0.989000000    -4.373000000    -2.009000000
O    -0.035000000    -5.014000000    -1.318000000
C     1.118000000    -4.321000000    -0.776000000
C     1.338000000    -4.823000000     0.714000000
C     2.660000000    -4.805000000     1.193000000
H     3.465000000    -4.502000000     0.528000000
C     0.324000000    -5.332000000     1.544000000
H    -0.694000000    -5.349000000     1.163000000
O     2.224000000    -4.373000000    -1.701000000
H     0.905000000    -3.261000000    -0.572000000
C    -0.826000000    -3.982000000    -3.309000000
C     0.509000000    -4.183000000    -4.069000000
H     0.209000000    -4.216000000    -5.118000000
H     0.758000000    -5.225000000    -3.857000000
C     1.584000000    -3.144000000    -3.669000000
C     1.794000000    -1.955000000    -4.424000000
H     1.194000000    -1.832000000    -5.323000000
C     2.422000000    -3.337000000    -2.558000000
C     3.248000000    -2.391000000    -2.113000000
H     3.838000000    -2.525000000    -1.210000000
C     3.538000000    -1.279000000    -2.869000000
O     4.364000000    -0.338000000    -2.215000000
C     3.848000000     0.898000000    -1.598000000
C     4.496000000     1.173000000    -0.221000000
C     4.684000000     0.091000000     0.639000000
H     4.380000000    -0.928000000     0.413000000
C     4.852000000     2.481000000     0.167000000
H     4.702000000     3.323000000    -0.503000000
O     3.857000000     1.921000000    -2.572000000
H     2.846000000     0.701000000    -1.189000000
C     2.729000000    -0.999000000    -4.035000000
C     2.989000000     0.299000000    -4.838000000
H     2.782000000     0.168000000    -5.902000000
H     4.050000000     0.555000000    -4.878000000
C     2.202000000     1.451000000    -4.185000000
C     2.654000000     2.249000000    -3.089000000
C     1.876000000     3.288000000    -2.574000000
H     2.210000000     3.894000000    -1.736000000
C     0.672000000     3.580000000    -3.138000000
O    -0.184000000     4.553000000    -2.521000000
C    -1.121000000     3.895000000    -1.542000000
H    -0.792000000     2.920000000    -1.152000000
C    -1.217000000     4.750000000    -0.268000000
C    -2.494000000     4.909000000     0.320000000
H    -3.450000000     4.678000000    -0.143000000
C    -0.058000000     4.902000000     0.485000000
H     0.881000000     4.486000000     0.131000000
C    -0.164000000     5.434000000     1.792000000
O     0.985000000     5.651000000     2.574000000
C    -1.466000000     5.664000000     2.381000000
H    -1.501000000     6.039000000     3.400000000
C    -2.631000000     5.400000000     1.608000000
O    -3.872000000     5.645000000     2.070000000
C    -4.983000000     4.762000000     1.979000000
C    -4.904000000     3.440000000     2.428000000
H    -3.978000000     2.992000000     2.781000000
C    -6.192000000     5.359000000     1.640000000
H    -6.187000000     6.399000000     1.326000000
C    -7.379000000     4.594000000     1.827000000
H    -8.349000000     5.028000000     1.601000000
C    -7.279000000     3.283000000     2.344000000
H    -8.192000000     2.721000000     2.522000000
C    -6.091000000     2.734000000     2.551000000
O    -6.106000000     1.396000000     3.019000000
C    -5.187000000     0.376000000     2.702000000
C    -4.682000000    -0.473000000     3.691000000
H    -4.981000000    -0.341000000     4.727000000
C    -3.913000000    -1.544000000     3.266000000
O    -3.217000000    -2.294000000     4.149000000
C    -3.022000000    -3.669000000     4.005000000
C    -1.747000000    -4.162000000     3.805000000
H    -0.865000000    -3.549000000     3.641000000
C    -4.127000000    -4.511000000     4.179000000
H    -5.132000000    -4.113000000     4.298000000
C    -4.008000000    -5.901000000     4.159000000
H    -4.864000000    -6.558000000     4.298000000
C    -2.717000000    -6.357000000     4.019000000
H    -2.486000000    -7.416000000     3.938000000
C    -1.596000000    -5.526000000     3.861000000
O    -0.355000000    -6.121000000     3.687000000
C     0.630000000    -5.668000000     2.850000000
C     1.952000000    -5.607000000     3.368000000
H     2.255000000    -5.992000000     4.339000000
C     2.962000000    -5.243000000     2.491000000
O     4.244000000    -5.255000000     2.920000000
C     5.110000000    -4.207000000     2.619000000
C     4.703000000    -2.884000000     2.901000000
H     3.731000000    -2.679000000     3.342000000
C     6.383000000    -4.461000000     2.066000000
H     6.660000000    -5.507000000     1.956000000
C     7.323000000    -3.446000000     1.960000000
H     8.313000000    -3.715000000     1.600000000
C     6.927000000    -2.128000000     2.279000000
H     7.602000000    -1.286000000     2.150000000
C     5.644000000    -1.872000000     2.708000000
O     5.254000000    -0.582000000     2.930000000
C     5.135000000     0.364000000     1.928000000
C     5.517000000     1.654000000     2.288000000
H     5.749000000     1.820000000     3.337000000
C     5.339000000     2.732000000     1.445000000
O     5.462000000     4.026000000     1.817000000
C     4.448000000     4.963000000     1.585000000
C     4.739000000     6.169000000     0.816000000
H     5.696000000     6.365000000     0.340000000
C     3.735000000     7.130000000     0.646000000
H     3.973000000     7.987000000     0.021000000
C     2.511000000     6.997000000     1.348000000
H     1.772000000     7.785000000     1.232000000
C     2.253000000     5.872000000     2.068000000
C     3.176000000     4.861000000     2.207000000
H     3.116000000     3.923000000     2.753000000
C     1.593000000     1.371000000     1.731000000
H     2.123000000     2.301000000     1.920000000
C     1.127000000     1.205000000     0.452000000
H     1.111000000     2.042000000    -0.241000000
C     0.412000000     0.025000000     0.093000000
C    -0.085000000    -0.131000000    -1.315000000
H     0.774000000    -0.553000000    -1.842000000
H    -0.947000000    -0.791000000    -1.431000000
H    -0.232000000     0.871000000    -1.723000000
C     0.356000000    -0.975000000     1.042000000
H    -0.034000000    -1.942000000     0.736000000
C     0.843000000    -0.827000000     2.312000000
H     0.750000000    -1.643000000     3.024000000
C     1.426000000     0.407000000     2.731000000
C     1.679000000     0.718000000     4.176000000
O     1.615000000    -0.220000000     4.946000000
O     1.980000000     1.860000000     4.554000000
O     4.091000000    -0.464000000     8.208000000
H     4.027000000    -0.401000000     7.255000000
H     4.733000000     0.204000000     8.449000000
O     4.266000000     2.168000000     5.843000000
H     3.915000000     2.674000000     6.576000000
H     3.506000000     1.988000000     5.290000000
O     1.201000000    -2.421000000     6.136000000
H     1.316000000    -1.653000000     5.577000000
H     1.875000000    -3.034000000     5.842000000
O     7.077000000     1.648000000     5.767000000
H     6.161000000     1.876000000     5.606000000
H     7.160000000     0.751000000     5.445000000
O     1.641000000     3.318000000     8.349000000
H     2.291000000     3.470000000     9.036000000
H     0.819000000     3.188000000     8.823000000
O     5.857000000     4.945000000     6.251000000
H     4.950000000     4.798000000     5.982000000
H     6.380000000     4.546000000     5.555000000
O    -1.987000000     1.397000000     1.161000000
H    -1.260000000     0.785000000     1.280000000
H    -1.728000000     2.174000000     1.657000000
O     2.347000000     4.485000000     5.887000000
H     1.977000000     4.270000000     6.744000000
H     2.224000000     3.690000000     5.368000000
O    -1.634000000     4.426000000     6.656000000
H    -1.368000000     4.020000000     5.832000000
H    -0.846000000     4.406000000     7.199000000
O    -2.793000000    -0.881000000     6.733000000
H    -2.128000000    -1.265000000     7.306000000
H    -3.010000000    -0.045000000     7.145000000
O     3.248000000    -4.242000000     6.240000000
H     3.694000000    -5.077000000     6.099000000
H     3.844000000    -3.743000000     6.799000000
O    -0.393000000    -1.601000000     8.151000000
H     0.017000000    -2.035000000     7.403000000
H     0.075000000    -0.770000000     8.232000000
O     5.864000000    -2.671000000     6.139000000
H     5.131000000    -2.103000000     5.902000000
H     6.636000000    -2.221000000     5.796000000
O     2.089000000    -0.675000000    10.020000000
H     2.992000000    -0.604000000     9.709000000
H     1.582000000    -0.885000000     9.236000000
O    -1.984000000     0.774000000     4.298000000
H    -2.493000000     0.528000000     3.526000000
H    -2.166000000     0.084000000     4.935000000
O    -0.663000000     3.039000000     4.592000000
H     0.235000000     3.006000000     4.263000000
H    -0.934000000     2.122000000     4.640000000
O     1.177000000     0.548000000     7.288000000
H     1.404000000     1.464000000     7.445000000
H     1.268000000     0.437000000     6.341000000
O     4.130000000    -0.571000000     5.579000000
H     4.528000000     0.287000000     5.428000000
H     3.202000000    -0.442000000     5.381000000
O    -2.774000000     1.689000000     7.736000000
H    -2.344000000     2.531000000     7.586000000
H    -2.796000000     1.597000000     8.688000000
