218
-1459.47841
C    -4.545000000    -1.671000000     2.254000000
H    -4.510000000    -2.649000000     1.781000000
C    -4.608000000    -0.554000000     1.436000000
C    -4.551000000     0.722000000     1.955000000
H    -4.456000000     1.640000000     1.382000000
C    -4.254000000    -0.689000000    -0.035000000
O    -4.503000000    -1.957000000    -0.630000000
H    -3.177000000    -0.468000000     0.003000000
O    -4.827000000     0.297000000    -0.781000000
C    -4.161000000     0.848000000    -1.835000000
C    -3.672000000     2.122000000    -1.589000000
H    -3.953000000     2.839000000    -0.822000000
C    -2.863000000     2.747000000    -2.577000000
O    -2.311000000     3.983000000    -2.243000000
C    -2.452000000     2.100000000    -3.736000000
C    -1.475000000     2.642000000    -4.800000000
H    -1.593000000     2.166000000    -5.775000000
C    -0.031000000     2.358000000    -4.318000000
C     0.603000000     1.175000000    -4.783000000
H     0.077000000     0.628000000    -5.562000000
H    -1.667000000     3.705000000    -4.962000000
C    -2.907000000     0.808000000    -3.895000000
H    -2.480000000     0.138000000    -4.637000000
C    -3.785000000     0.215000000    -2.997000000
C    -4.215000000    -1.187000000    -3.296000000
H    -4.208000000    -1.227000000    -4.387000000
H    -5.203000000    -1.386000000    -2.876000000
C    -3.206000000    -2.168000000    -2.619000000
C    -2.126000000    -2.720000000    -3.308000000
H    -1.922000000    -2.509000000    -4.355000000
C    -3.457000000    -2.570000000    -1.319000000
C    -2.598000000    -3.455000000    -0.649000000
H    -2.868000000    -3.806000000     0.344000000
C    -1.475000000    -3.928000000    -1.365000000
O    -0.631000000    -4.773000000    -0.736000000
C     0.698000000    -4.355000000    -0.352000000
C     0.996000000    -5.033000000     0.965000000
C     2.281000000    -4.860000000     1.519000000
H     3.128000000    -4.694000000     0.859000000
C    -0.031000000    -5.318000000     1.866000000
H    -1.056000000    -5.286000000     1.505000000
O     1.697000000    -4.648000000    -1.373000000
H     0.561000000    -3.299000000    -0.077000000
C    -1.340000000    -3.600000000    -2.679000000
C    -0.212000000    -4.274000000    -3.513000000
H    -0.477000000    -4.260000000    -4.572000000
H     0.021000000    -5.295000000    -3.203000000
C     1.081000000    -3.434000000    -3.353000000
C     1.351000000    -2.383000000    -4.224000000
H     0.699000000    -2.129000000    -5.055000000
C     1.925000000    -3.665000000    -2.252000000
C     3.050000000    -2.878000000    -2.073000000
H     3.695000000    -3.109000000    -1.229000000
C     3.314000000    -1.853000000    -2.951000000
O     4.245000000    -0.929000000    -2.483000000
C     3.682000000     0.237000000    -1.826000000
C     4.518000000     0.708000000    -0.636000000
C     5.193000000    -0.274000000     0.144000000
H     5.213000000    -1.333000000    -0.101000000
C     4.570000000     2.019000000    -0.171000000
H     4.041000000     2.795000000    -0.719000000
O     3.717000000     1.299000000    -2.791000000
H     2.685000000     0.016000000    -1.419000000
C     2.530000000    -1.630000000    -4.068000000
C     2.651000000    -0.384000000    -4.966000000
H     2.211000000    -0.440000000    -5.964000000
H     3.706000000    -0.148000000    -5.118000000
C     1.916000000     0.832000000    -4.376000000
C     2.582000000     1.689000000    -3.470000000
C     1.896000000     2.784000000    -2.961000000
H     2.367000000     3.383000000    -2.185000000
C     0.642000000     3.226000000    -3.394000000
O    -0.047000000     4.204000000    -2.773000000
C    -1.006000000     3.942000000    -1.737000000
H    -0.828000000     2.947000000    -1.302000000
C    -0.857000000     4.975000000    -0.612000000
C    -2.011000000     5.480000000     0.092000000
H    -2.995000000     5.144000000    -0.225000000
C     0.402000000     5.337000000    -0.101000000
H     1.276000000     4.873000000    -0.550000000
C     0.451000000     6.242000000     1.012000000
O     1.677000000     6.583000000     1.563000000
C    -0.679000000     6.660000000     1.716000000
H    -0.522000000     7.158000000     2.670000000
C    -1.888000000     6.218000000     1.284000000
O    -3.024000000     6.421000000     2.044000000
C    -4.008000000     5.478000000     2.342000000
C    -3.683000000     4.285000000     2.958000000
H    -2.656000000     4.178000000     3.297000000
C    -5.292000000     5.803000000     2.123000000
H    -5.511000000     6.831000000     1.843000000
C    -6.308000000     4.887000000     2.397000000
H    -7.353000000     5.186000000     2.359000000
C    -5.953000000     3.587000000     2.851000000
H    -6.745000000     2.878000000     3.075000000
C    -4.636000000     3.318000000     3.196000000
O    -4.391000000     2.162000000     3.895000000
C    -4.518000000     0.879000000     3.340000000
C    -4.538000000    -0.276000000     4.203000000
H    -4.429000000    -0.101000000     5.270000000
C    -4.507000000    -1.533000000     3.645000000
O    -4.352000000    -2.585000000     4.515000000
C    -3.951000000    -3.795000000     4.153000000
C    -2.572000000    -4.169000000     4.274000000
H    -1.848000000    -3.427000000     4.602000000
C    -4.817000000    -4.728000000     3.654000000
H    -5.886000000    -4.544000000     3.576000000
C    -4.326000000    -5.979000000     3.279000000
H    -5.082000000    -6.692000000     2.961000000
C    -2.962000000    -6.353000000     3.476000000
H    -2.653000000    -7.366000000     3.229000000
C    -2.073000000    -5.410000000     3.980000000
O    -0.744000000    -5.642000000     4.143000000
C     0.288000000    -5.491000000     3.238000000
C     1.595000000    -5.390000000     3.723000000
H     1.891000000    -5.570000000     4.753000000
C     2.621000000    -5.061000000     2.888000000
O     3.885000000    -4.842000000     3.470000000
C     4.978000000    -4.325000000     2.794000000
C     5.127000000    -2.947000000     2.798000000
H     4.352000000    -2.389000000     3.318000000
C     5.833000000    -5.047000000     1.992000000
H     5.674000000    -6.122000000     1.949000000
C     7.029000000    -4.526000000     1.491000000
H     7.717000000    -5.235000000     1.037000000
C     7.185000000    -3.128000000     1.535000000
H     8.126000000    -2.761000000     1.132000000
C     6.171000000    -2.332000000     2.103000000
O     6.309000000    -0.918000000     2.129000000
C     5.854000000     0.079000000     1.306000000
C     5.937000000     1.421000000     1.738000000
H     6.410000000     1.690000000     2.679000000
C     5.266000000     2.373000000     0.982000000
O     5.420000000     3.674000000     1.465000000
C     4.701000000     4.772000000     0.985000000
C     5.361000000     5.610000000     0.119000000
H     6.394000000     5.312000000    -0.043000000
C     4.791000000     6.792000000    -0.385000000
H     5.350000000     7.423000000    -1.072000000
C     3.542000000     7.099000000     0.147000000
H     3.118000000     8.053000000    -0.157000000
C     2.869000000     6.292000000     1.021000000
C     3.406000000     5.052000000     1.395000000
H     2.864000000     4.490000000     2.152000000
C     1.842000000     0.884000000     2.122000000
H     2.617000000     1.571000000     2.451000000
C     1.280000000     1.012000000     0.852000000
H     1.539000000     1.823000000     0.176000000
C     0.237000000     0.207000000     0.469000000
C    -0.161000000     0.200000000    -1.014000000
H    -1.171000000     0.586000000    -1.162000000
H     0.495000000     0.886000000    -1.555000000
H    -0.140000000    -0.858000000    -1.282000000
C    -0.180000000    -0.786000000     1.322000000
H    -1.082000000    -1.367000000     1.144000000
C     0.405000000    -0.926000000     2.606000000
H    -0.085000000    -1.573000000     3.329000000
C     1.399000000    -0.065000000     3.020000000
C     1.864000000     0.003000000     4.485000000
O     1.293000000    -0.617000000     5.321000000
O     2.802000000     0.718000000     4.856000000
O     8.031000000     0.102000000     7.048000000
H     8.711000000     0.761000000     6.911000000
H     7.660000000    -0.043000000     6.177000000
O     4.045000000    -1.265000000     6.131000000
H     3.486000000    -1.974000000     5.813000000
H     3.540000000    -0.469000000     5.964000000
O     1.157000000    -2.948000000     6.729000000
H     1.380000000    -2.157000000     6.239000000
H     0.837000000    -2.625000000     7.571000000
O     6.349000000    -0.427000000     4.998000000
H     6.928000000    -0.779000000     4.322000000
H     5.647000000    -1.073000000     5.072000000
O     5.076000000     1.878000000     5.417000000
H     4.182000000     1.555000000     5.305000000
H     5.630000000     1.121000000     5.223000000
O     2.139000000     3.359000000     4.526000000
H     2.477000000     2.469000000     4.626000000
H     1.202000000     3.243000000     4.370000000
O     2.131000000     0.298000000    10.391000000
H     1.366000000     0.584000000     9.892000000
H     2.795000000     0.111000000     9.728000000
O     2.875000000     5.479000000     6.108000000
H     2.790000000     4.615000000     5.706000000
H     2.055000000     5.925000000     5.894000000
O    -0.619000000     0.970000000     9.541000000
H    -0.422000000     1.854000000     9.852000000
H    -1.556000000     0.862000000     9.705000000
O     6.191000000     4.239000000     4.461000000
H     5.782000000     3.609000000     5.055000000
H     5.921000000     3.955000000     3.588000000
O    -0.446000000     5.046000000     5.200000000
H    -1.284000000     5.507000000     5.176000000
H     0.211000000     5.742000000     5.176000000
O    -2.993000000    -2.122000000     7.832000000
H    -3.121000000    -1.700000000     6.983000000
H    -2.090000000    -1.914000000     8.070000000
O     5.135000000     1.395000000     7.988000000
H     4.179000000     1.443000000     8.007000000
H     5.372000000     1.679000000     7.105000000
O     0.058000000    -1.691000000     8.999000000
H     0.035000000    -0.810000000     8.625000000
H     0.433000000    -1.571000000     9.872000000
O    -1.297000000    -1.067000000     5.932000000
H    -1.780000000    -0.329000000     5.559000000
H    -0.384000000    -0.780000000     5.933000000
O     2.459000000     1.235000000     7.678000000
H     1.588000000     1.631000000     7.710000000
H     2.626000000     1.098000000     6.745000000
O    -0.220000000     2.542000000     6.519000000
H    -0.263000000     3.429000000     6.161000000
H    -0.948000000     2.499000000     7.139000000
O     5.074000000    -1.410000000     8.739000000
H     5.312000000    -0.483000000     8.750000000
H     4.602000000    -1.525000000     7.914000000
O    -0.019000000    -5.643000000     7.566000000
H     0.782000000    -6.137000000     7.739000000
H     0.287000000    -4.775000000     7.302000000
