218
-1482.07661
C    -4.226000000    -1.280000000     2.104000000
H    -3.525000000    -2.111000000     2.093000000
C    -4.631000000    -0.740000000     0.874000000
C    -5.308000000     0.437000000     0.806000000
H    -5.517000000     0.850000000    -0.177000000
C    -4.119000000    -1.390000000    -0.396000000
O    -4.057000000    -2.820000000    -0.409000000
H    -3.141000000    -0.886000000    -0.376000000
O    -4.735000000    -0.871000000    -1.596000000
C    -3.852000000    -0.528000000    -2.614000000
C    -3.389000000     0.796000000    -2.679000000
H    -3.859000000     1.501000000    -1.997000000
C    -2.446000000     1.246000000    -3.555000000
O    -2.131000000     2.605000000    -3.565000000
C    -1.925000000     0.350000000    -4.471000000
C    -0.781000000     0.707000000    -5.470000000
H    -0.745000000    -0.025000000    -6.279000000
C     0.590000000     0.742000000    -4.739000000
C     1.521000000    -0.286000000    -4.854000000
H     1.343000000    -1.135000000    -5.508000000
H    -0.891000000     1.679000000    -5.955000000
C    -2.186000000    -1.015000000    -4.315000000
H    -1.629000000    -1.751000000    -4.889000000
C    -3.219000000    -1.464000000    -3.436000000
C    -3.564000000    -2.907000000    -3.233000000
H    -3.428000000    -3.438000000    -4.177000000
H    -4.609000000    -2.994000000    -2.930000000
C    -2.637000000    -3.539000000    -2.184000000
C    -1.456000000    -4.182000000    -2.599000000
H    -1.103000000    -4.263000000    -3.624000000
C    -2.917000000    -3.403000000    -0.862000000
C    -2.175000000    -4.014000000     0.133000000
H    -2.583000000    -4.074000000     1.139000000
C    -0.956000000    -4.557000000    -0.241000000
O    -0.192000000    -5.015000000     0.794000000
C     0.888000000    -4.155000000     1.204000000
C     1.105000000    -4.035000000     2.728000000
C     2.374000000    -3.749000000     3.191000000
H     3.199000000    -3.472000000     2.541000000
C     0.053000000    -4.303000000     3.569000000
H    -0.911000000    -4.618000000     3.178000000
O     2.113000000    -4.465000000     0.652000000
H     0.717000000    -3.116000000     0.884000000
C    -0.564000000    -4.651000000    -1.580000000
C     0.788000000    -5.216000000    -1.921000000
H     0.750000000    -5.641000000    -2.926000000
H     0.903000000    -6.080000000    -1.263000000
C     1.892000000    -4.139000000    -1.774000000
C     2.279000000    -3.348000000    -2.894000000
H     1.907000000    -3.629000000    -3.876000000
C     2.521000000    -3.849000000    -0.527000000
C     3.428000000    -2.794000000    -0.484000000
H     3.869000000    -2.566000000     0.483000000
C     3.756000000    -2.010000000    -1.586000000
O     4.655000000    -0.948000000    -1.279000000
C     3.963000000     0.301000000    -1.241000000
C     4.333000000     1.217000000    -0.049000000
C     4.424000000     0.671000000     1.231000000
H     4.219000000    -0.357000000     1.519000000
C     4.395000000     2.646000000    -0.143000000
H     4.185000000     3.082000000    -1.116000000
O     4.091000000     0.887000000    -2.533000000
H     2.893000000     0.073000000    -1.128000000
C     3.190000000    -2.278000000    -2.831000000
C     3.537000000    -1.455000000    -4.065000000
H     3.361000000    -1.972000000    -5.011000000
H     4.585000000    -1.153000000    -4.019000000
C     2.676000000    -0.255000000    -4.097000000
C     2.997000000     0.851000000    -3.359000000
C     2.147000000     1.931000000    -3.281000000
H     2.344000000     2.800000000    -2.659000000
C     0.950000000     1.806000000    -3.949000000
O     0.175000000     2.891000000    -3.798000000
C    -0.883000000     2.919000000    -2.853000000
H    -0.681000000     2.147000000    -2.097000000
C    -1.019000000     4.245000000    -2.072000000
C    -2.157000000     4.499000000    -1.388000000
H    -2.988000000     3.800000000    -1.431000000
C     0.070000000     5.057000000    -1.834000000
H     0.929000000     4.934000000    -2.489000000
C    -0.011000000     6.150000000    -0.996000000
O     0.986000000     7.069000000    -0.934000000
C    -1.173000000     6.416000000    -0.308000000
H    -1.263000000     7.333000000     0.269000000
C    -2.269000000     5.577000000    -0.516000000
O    -3.405000000     5.722000000     0.191000000
C    -4.527000000     4.897000000     0.031000000
C    -4.822000000     3.957000000     1.029000000
H    -4.180000000     3.870000000     1.902000000
C    -5.375000000     5.015000000    -1.055000000
H    -5.178000000     5.748000000    -1.833000000
C    -6.583000000     4.309000000    -1.087000000
H    -7.238000000     4.446000000    -1.944000000
C    -6.858000000     3.293000000    -0.109000000
H    -7.749000000     2.736000000    -0.386000000
C    -5.969000000     3.122000000     0.940000000
O    -6.355000000     2.290000000     1.960000000
C    -5.761000000     1.042000000     2.004000000
C    -5.453000000     0.506000000     3.257000000
H    -5.696000000     1.075000000     4.151000000
C    -4.663000000    -0.675000000     3.295000000
O    -4.111000000    -1.049000000     4.531000000
C    -3.760000000    -2.416000000     4.680000000
C    -2.556000000    -2.797000000     5.301000000
H    -1.865000000    -2.034000000     5.650000000
C    -4.606000000    -3.463000000     4.262000000
H    -5.532000000    -3.133000000     3.797000000
C    -4.279000000    -4.846000000     4.364000000
H    -4.880000000    -5.621000000     3.895000000
C    -2.996000000    -5.202000000     4.844000000
H    -2.817000000    -6.260000000     5.014000000
C    -2.144000000    -4.132000000     5.372000000
O    -0.827000000    -4.450000000     5.755000000
C     0.223000000    -4.197000000     4.950000000
C     1.474000000    -4.037000000     5.401000000
H     1.609000000    -4.024000000     6.480000000
C     2.531000000    -3.740000000     4.590000000
O     3.800000000    -3.445000000     5.124000000
C     4.704000000    -2.548000000     4.562000000
C     4.286000000    -1.249000000     4.328000000
H     3.221000000    -1.061000000     4.430000000
C     5.995000000    -2.965000000     4.265000000
H     6.176000000    -4.035000000     4.330000000
C     6.921000000    -2.052000000     3.793000000
H     7.951000000    -2.287000000     3.537000000
C     6.602000000    -0.710000000     3.660000000
H     7.379000000    -0.043000000     3.292000000
C     5.310000000    -0.322000000     3.899000000
O     4.790000000     0.950000000     3.617000000
C     4.738000000     1.491000000     2.349000000
C     4.949000000     2.839000000     2.187000000
H     5.114000000     3.513000000     3.023000000
C     4.720000000     3.427000000     0.961000000
O     4.722000000     4.834000000     0.928000000
C     4.181000000     5.657000000    -0.015000000
C     4.979000000     6.263000000    -0.970000000
H     6.007000000     5.946000000    -1.121000000
C     4.451000000     7.162000000    -1.924000000
H     5.095000000     7.630000000    -2.664000000
C     3.078000000     7.436000000    -1.899000000
H     2.591000000     8.132000000    -2.578000000
C     2.318000000     6.735000000    -0.978000000
C     2.861000000     5.915000000    -0.028000000
H     2.196000000     5.494000000     0.722000000
C     0.865000000     1.192000000     2.013000000
H     1.543000000     1.969000000     2.354000000
C     0.760000000     0.963000000     0.655000000
H     1.478000000     1.475000000     0.021000000
C    -0.131000000     0.032000000     0.109000000
C    -0.272000000    -0.377000000    -1.328000000
H     0.029000000    -1.418000000    -1.461000000
H    -1.303000000    -0.232000000    -1.658000000
H     0.348000000     0.285000000    -1.936000000
C    -0.872000000    -0.681000000     1.042000000
H    -1.564000000    -1.431000000     0.667000000
C    -0.652000000    -0.537000000     2.421000000
H    -1.047000000    -1.263000000     3.127000000
C     0.110000000     0.463000000     2.961000000
C     0.142000000     0.828000000     4.398000000
O    -0.518000000     0.291000000     5.225000000
O     0.981000000     1.621000000     4.775000000
O     0.174000000     2.698000000     7.358000000
H     0.284000000     2.221000000     6.535000000
H     0.002000000     3.601000000     7.089000000
O    -2.908000000     2.104000000     8.120000000
H    -2.967000000     1.976000000     7.173000000
H    -2.020000000     1.826000000     8.345000000
O     0.936000000    -0.545000000     7.582000000
H     0.950000000     0.398000000     7.743000000
H     0.578000000    -0.632000000     6.699000000
O    -0.664000000     6.993000000     2.895000000
H    -0.283000000     6.119000000     2.977000000
H    -1.523000000     6.920000000     3.310000000
O    -2.870000000     4.385000000     9.673000000
H    -2.488000000     3.726000000    10.254000000
H    -3.016000000     3.921000000     8.849000000
O     0.830000000     4.231000000     3.981000000
H     0.629000000     3.306000000     4.124000000
H     0.240000000     4.698000000     4.573000000
O    -5.141000000     1.137000000     9.469000000
H    -4.350000000     1.477000000     9.051000000
H    -5.861000000     1.520000000     8.969000000
O     0.437000000     2.023000000    10.149000000
H     0.300000000     2.249000000     9.229000000
H     1.290000000     1.589000000    10.164000000
O     4.093000000    -1.325000000     7.163000000
H     4.138000000    -1.965000000     6.452000000
H     3.180000000    -1.037000000     7.168000000
O     2.693000000     0.647000000    10.046000000
H     2.841000000     0.732000000    10.988000000
H     2.769000000    -0.292000000     9.875000000
O    -0.996000000     5.270000000     5.769000000
H    -1.899000000     5.071000000     5.522000000
H    -1.073000000     5.976000000     6.410000000
O    -3.018000000     1.441000000     5.385000000
H    -3.636000000     0.741000000     5.179000000
H    -2.160000000     1.016000000     5.372000000
O    -2.719000000    -2.397000000     9.017000000
H    -3.543000000    -1.970000000     8.784000000
H    -2.566000000    -2.142000000     9.926000000
O     4.403000000     2.008000000     8.544000000
H     4.193000000     1.994000000     7.610000000
H     3.782000000     1.396000000     8.939000000
O     2.945000000     4.396000000     6.192000000
H     3.345000000     3.540000000     6.349000000
H     2.466000000     4.289000000     5.371000000
O    -3.593000000     4.151000000     4.802000000
H    -3.373000000     3.225000000     4.899000000
H    -4.276000000     4.305000000     5.455000000
O    -0.169000000    -2.682000000     8.719000000
H     0.287000000    -2.000000000     8.227000000
H    -1.095000000    -2.452000000     8.647000000
O     3.645000000     1.875000000     5.930000000
H     2.706000000     1.725000000     5.818000000
H     4.002000000     1.833000000     5.042000000
O     0.965000000     5.559000000     8.148000000
H     1.701000000     5.626000000     7.540000000
H     1.319000000     5.087000000     8.902000000
