218
-1444.12390
C    -4.636000000    -1.326000000     1.560000000
H    -4.664000000    -2.408000000     1.456000000
C    -4.234000000    -0.556000000     0.443000000
C    -4.283000000     0.829000000     0.554000000
H    -3.801000000     1.395000000    -0.238000000
C    -3.803000000    -1.262000000    -0.887000000
O    -4.260000000    -2.604000000    -0.940000000
H    -2.704000000    -1.260000000    -0.935000000
O    -4.226000000    -0.542000000    -2.016000000
C    -3.323000000    -0.241000000    -2.906000000
C    -2.789000000     1.045000000    -2.910000000
H    -3.154000000     1.819000000    -2.239000000
C    -1.921000000     1.443000000    -3.850000000
O    -1.477000000     2.736000000    -3.870000000
C    -1.363000000     0.503000000    -4.692000000
C    -0.124000000     0.828000000    -5.562000000
H    -0.170000000     0.013000000    -6.287000000
C     1.108000000     0.885000000    -4.670000000
C     1.902000000    -0.225000000    -4.643000000
H     1.578000000    -1.134000000    -5.144000000
H    -0.265000000     1.762000000    -6.109000000
C    -1.824000000    -0.836000000    -4.731000000
H    -1.529000000    -1.594000000    -5.452000000
C    -2.801000000    -1.225000000    -3.831000000
C    -3.310000000    -2.672000000    -3.784000000
H    -3.157000000    -3.094000000    -4.779000000
H    -4.401000000    -2.630000000    -3.799000000
C    -2.692000000    -3.467000000    -2.645000000
C    -1.485000000    -4.077000000    -2.895000000
H    -0.996000000    -4.014000000    -3.863000000
C    -3.226000000    -3.454000000    -1.360000000
C    -2.544000000    -4.051000000    -0.309000000
H    -2.940000000    -3.982000000     0.701000000
C    -1.239000000    -4.592000000    -0.544000000
O    -0.525000000    -4.829000000     0.598000000
C     0.474000000    -3.871000000     0.973000000
C     0.447000000    -3.683000000     2.448000000
C     1.419000000    -2.886000000     3.079000000
H     2.322000000    -2.661000000     2.516000000
C    -0.700000000    -4.067000000     3.181000000
H    -1.461000000    -4.780000000     2.872000000
O     1.733000000    -4.341000000     0.580000000
H     0.172000000    -2.918000000     0.513000000
C    -0.747000000    -4.620000000    -1.849000000
C     0.679000000    -5.105000000    -2.063000000
H     0.769000000    -5.451000000    -3.094000000
H     0.933000000    -5.979000000    -1.460000000
C     1.761000000    -4.010000000    -1.876000000
C     2.337000000    -3.368000000    -2.980000000
H     1.906000000    -3.522000000    -3.966000000
C     2.244000000    -3.776000000    -0.562000000
C     3.372000000    -3.054000000    -0.404000000
H     3.752000000    -2.814000000     0.586000000
C     3.949000000    -2.366000000    -1.498000000
O     4.856000000    -1.352000000    -1.136000000
C     4.344000000    -0.010000000    -0.847000000
C     4.963000000     0.746000000     0.263000000
C     5.447000000     0.086000000     1.420000000
H     5.587000000    -0.991000000     1.443000000
C     5.015000000     2.108000000     0.235000000
H     4.616000000     2.587000000    -0.656000000
O     4.408000000     0.797000000    -2.097000000
H     3.297000000    -0.052000000    -0.512000000
C     3.394000000    -2.456000000    -2.782000000
C     3.823000000    -1.568000000    -3.917000000
H     3.807000000    -2.027000000    -4.908000000
H     4.895000000    -1.402000000    -3.795000000
C     3.052000000    -0.275000000    -3.904000000
C     3.390000000     0.790000000    -3.026000000
C     2.558000000     1.942000000    -3.019000000
H     2.774000000     2.768000000    -2.346000000
C     1.499000000     2.022000000    -3.910000000
O     0.733000000     3.134000000    -3.791000000
C    -0.392000000     3.102000000    -2.978000000
H    -0.224000000     2.346000000    -2.197000000
C    -0.564000000     4.361000000    -2.234000000
C    -1.849000000     4.869000000    -2.053000000
H    -2.610000000     4.454000000    -2.709000000
C     0.480000000     4.841000000    -1.475000000
H     1.437000000     4.336000000    -1.578000000
C     0.198000000     5.827000000    -0.500000000
O     1.264000000     6.407000000     0.195000000
C    -1.064000000     6.439000000    -0.405000000
H    -1.128000000     7.259000000     0.306000000
C    -2.079000000     5.875000000    -1.165000000
O    -3.334000000     6.336000000    -0.984000000
C    -4.315000000     5.471000000    -0.490000000
C    -3.963000000     4.529000000     0.490000000
H    -3.001000000     4.511000000     0.994000000
C    -5.656000000     5.489000000    -0.957000000
H    -5.919000000     6.190000000    -1.745000000
C    -6.641000000     4.697000000    -0.363000000
H    -7.613000000     4.702000000    -0.850000000
C    -6.328000000     3.840000000     0.678000000
H    -7.062000000     3.142000000     1.071000000
C    -4.952000000     3.685000000     1.066000000
O    -4.575000000     2.692000000     2.021000000
C    -4.694000000     1.366000000     1.722000000
C    -5.188000000     0.601000000     2.705000000
H    -5.517000000     1.054000000     3.637000000
C    -5.135000000    -0.710000000     2.695000000
O    -5.481000000    -1.424000000     3.875000000
C    -5.038000000    -2.608000000     4.289000000
C    -3.690000000    -2.802000000     4.576000000
H    -3.010000000    -1.964000000     4.447000000
C    -5.904000000    -3.724000000     4.443000000
H    -6.951000000    -3.481000000     4.280000000
C    -5.401000000    -4.997000000     4.811000000
H    -6.051000000    -5.856000000     4.960000000
C    -4.040000000    -5.087000000     5.084000000
H    -3.668000000    -6.084000000     5.303000000
C    -3.188000000    -4.026000000     5.014000000
O    -1.845000000    -4.156000000     5.306000000
C    -0.812000000    -3.625000000     4.525000000
C     0.051000000    -2.666000000     5.023000000
H    -0.003000000    -2.329000000     6.054000000
C     1.194000000    -2.305000000     4.336000000
O     2.129000000    -1.599000000     5.066000000
C     3.479000000    -1.663000000     4.872000000
C     4.195000000    -0.592000000     4.391000000
H     3.782000000     0.394000000     4.195000000
C     4.045000000    -2.897000000     4.975000000
H     3.452000000    -3.774000000     5.222000000
C     5.435000000    -3.035000000     4.867000000
H     5.867000000    -4.024000000     5.005000000
C     6.191000000    -1.996000000     4.418000000
H     7.270000000    -2.044000000     4.291000000
C     5.569000000    -0.773000000     4.176000000
O     6.340000000     0.225000000     3.687000000
C     5.885000000     0.841000000     2.525000000
C     5.778000000     2.158000000     2.549000000
H     6.125000000     2.682000000     3.436000000
C     5.362000000     2.851000000     1.397000000
O     5.397000000     4.229000000     1.289000000
C     4.640000000     4.972000000     0.457000000
C     5.135000000     5.279000000    -0.779000000
H     6.139000000     4.942000000    -1.026000000
C     4.371000000     6.036000000    -1.669000000
H     4.726000000     6.239000000    -2.676000000
C     3.093000000     6.471000000    -1.358000000
H     2.476000000     6.977000000    -2.096000000
C     2.593000000     6.146000000    -0.101000000
C     3.337000000     5.382000000     0.767000000
H     2.953000000     5.237000000     1.773000000
C     1.226000000     1.328000000     1.768000000
H     2.021000000     1.987000000     2.107000000
C     0.969000000     0.857000000     0.490000000
H     1.575000000     1.357000000    -0.261000000
C     0.043000000    -0.164000000     0.246000000
C     0.014000000    -0.800000000    -1.079000000
H    -0.205000000    -0.137000000    -1.919000000
H     1.004000000    -1.226000000    -1.254000000
H    -0.615000000    -1.692000000    -1.107000000
C    -0.747000000    -0.608000000     1.309000000
H    -1.546000000    -1.295000000     1.046000000
C    -0.632000000    -0.090000000     2.569000000
H    -1.258000000    -0.407000000     3.399000000
C     0.400000000     0.872000000     2.861000000
C     0.526000000     1.502000000     4.174000000
O    -0.368000000     1.367000000     4.923000000
O     1.458000000     2.244000000     4.463000000
O    -2.623000000     3.670000000     3.879000000
H    -1.886000000     3.077000000     4.025000000
H    -3.291000000     3.124000000     3.464000000
O     0.375000000    -1.039000000     8.245000000
H     0.199000000    -1.905000000     8.613000000
H     1.288000000    -1.081000000     7.961000000
O     2.772000000     1.679000000     6.691000000
H     2.233000000     1.337000000     7.404000000
H     2.141000000     1.969000000     6.032000000
O    -0.884000000     7.384000000     3.978000000
H    -1.277000000     6.651000000     3.503000000
H     0.054000000     7.190000000     3.984000000
O     2.549000000     5.058000000     8.235000000
H     2.207000000     4.395000000     7.636000000
H     2.104000000     4.885000000     9.064000000
O    -4.050000000     6.121000000     3.736000000
H    -4.890000000     5.664000000     3.784000000
H    -3.423000000     5.512000000     4.127000000
O     5.091000000     4.906000000     5.167000000
H     5.997000000     5.215000000     5.192000000
H     5.144000000     3.989000000     5.436000000
O     3.459000000    -0.904000000     7.823000000
H     3.876000000    -1.760000000     7.930000000
H     3.586000000    -0.690000000     6.899000000
O    -2.986000000     1.600000000     9.563000000
H    -2.161000000     1.123000000     9.476000000
H    -2.956000000     2.259000000     8.869000000
O     3.511000000     0.133000000    10.324000000
H     3.673000000     0.240000000     9.387000000
H     2.848000000    -0.555000000    10.376000000
O    -2.775000000     3.691000000     7.939000000
H    -3.445000000     3.543000000     7.271000000
H    -2.158000000     4.298000000     7.529000000
O    -0.820000000     1.253000000     7.621000000
H    -0.451000000     0.408000000     7.876000000
H    -0.685000000     1.297000000     6.674000000
O     2.375000000     7.458000000     4.581000000
H     2.237000000     6.589000000     4.204000000
H     3.204000000     7.753000000     4.206000000
O    -3.879000000     1.085000000     5.523000000
H    -3.851000000     2.021000000     5.327000000
H    -2.960000000     0.832000000     5.615000000
O     5.389000000     2.297000000     5.991000000
H     5.836000000     1.452000000     5.948000000
H     4.522000000     2.093000000     6.340000000
O     2.462000000     4.877000000     4.293000000
H     2.053000000     4.024000000     4.441000000
H     3.323000000     4.804000000     4.704000000
O    -5.034000000     3.450000000     6.393000000
H    -5.577000000     3.878000000     5.731000000
H    -5.567000000     2.718000000     6.704000000
O    -0.840000000     6.593000000     8.344000000
H    -0.178000000     6.107000000     7.853000000
H    -0.967000000     6.083000000     9.144000000
O     0.273000000     3.638000000     7.340000000
H    -0.184000000     2.879000000     7.701000000
H     0.452000000     3.400000000     6.430000000
