218
-1458.52508
C    -3.803000000    -1.594000000     2.286000000
H    -3.225000000    -2.515000000     2.306000000
C    -4.135000000    -1.083000000     1.028000000
C    -4.852000000     0.146000000     0.998000000
H    -5.336000000     0.553000000     0.115000000
C    -3.615000000    -1.710000000    -0.275000000
O    -3.728000000    -3.176000000    -0.239000000
H    -2.613000000    -1.296000000    -0.463000000
O    -4.457000000    -1.201000000    -1.365000000
C    -3.892000000    -0.839000000    -2.587000000
C    -3.808000000     0.543000000    -2.882000000
H    -4.212000000     1.258000000    -2.169000000
C    -2.912000000     1.020000000    -3.859000000
O    -2.617000000     2.405000000    -3.860000000
C    -2.175000000     0.095000000    -4.587000000
C    -1.081000000     0.561000000    -5.522000000
H    -0.892000000    -0.333000000    -6.119000000
C     0.306000000     0.852000000    -4.896000000
C     1.267000000    -0.175000000    -4.786000000
H     1.032000000    -1.111000000    -5.286000000
H    -1.347000000     1.404000000    -6.163000000
C    -2.469000000    -1.271000000    -4.469000000
H    -1.972000000    -1.994000000    -5.110000000
C    -3.238000000    -1.732000000    -3.454000000
C    -3.404000000    -3.334000000    -3.236000000
H    -3.149000000    -3.816000000    -4.182000000
H    -4.474000000    -3.495000000    -3.092000000
C    -2.348000000    -3.823000000    -2.211000000
C    -1.094000000    -4.218000000    -2.645000000
H    -0.878000000    -4.159000000    -3.709000000
C    -2.623000000    -3.851000000    -0.808000000
C    -1.716000000    -4.261000000     0.063000000
H    -1.970000000    -4.377000000     1.113000000
C    -0.431000000    -4.615000000    -0.346000000
O     0.459000000    -5.052000000     0.603000000
C     1.437000000    -4.097000000     1.003000000
C     1.603000000    -4.030000000     2.554000000
C     2.882000000    -3.809000000     3.072000000
H     3.713000000    -3.711000000     2.379000000
C     0.545000000    -4.028000000     3.480000000
H    -0.456000000    -4.234000000     3.110000000
O     2.674000000    -4.288000000     0.321000000
H     1.083000000    -3.113000000     0.662000000
C    -0.129000000    -4.588000000    -1.721000000
C     1.250000000    -5.055000000    -2.122000000
H     1.256000000    -5.366000000    -3.168000000
H     1.610000000    -5.977000000    -1.661000000
C     2.335000000    -3.920000000    -2.002000000
C     2.661000000    -3.111000000    -3.084000000
H     2.102000000    -3.364000000    -3.982000000
C     2.880000000    -3.561000000    -0.787000000
C     3.817000000    -2.505000000    -0.687000000
H     4.277000000    -2.277000000     0.271000000
C     3.970000000    -1.662000000    -1.720000000
O     4.515000000    -0.442000000    -1.360000000
C     3.676000000     0.770000000    -1.205000000
C     4.072000000     1.672000000    -0.035000000
C     4.692000000     1.019000000     1.084000000
H     5.006000000    -0.009000000     0.925000000
C     3.870000000     3.002000000     0.056000000
H     3.254000000     3.420000000    -0.735000000
O     3.723000000     1.464000000    -2.469000000
H     2.617000000     0.536000000    -1.020000000
C     3.449000000    -2.005000000    -2.936000000
C     3.547000000    -1.070000000    -4.136000000
H     3.409000000    -1.702000000    -5.016000000
H     4.543000000    -0.624000000    -4.180000000
C     2.474000000     0.015000000    -4.035000000
C     2.704000000     1.242000000    -3.366000000
C     1.685000000     2.221000000    -3.447000000
H     1.837000000     3.160000000    -2.921000000
C     0.557000000     2.018000000    -4.178000000
O    -0.424000000     2.984000000    -4.160000000
C    -1.429000000     2.821000000    -3.198000000
H    -1.198000000     2.020000000    -2.481000000
C    -1.575000000     4.089000000    -2.441000000
C    -2.827000000     4.225000000    -1.765000000
H    -3.613000000     3.493000000    -1.932000000
C    -0.495000000     4.942000000    -2.231000000
H     0.407000000     4.853000000    -2.832000000
C    -0.658000000     5.980000000    -1.321000000
O     0.259000000     7.008000000    -1.234000000
C    -1.861000000     6.102000000    -0.610000000
H    -2.015000000     6.868000000     0.146000000
C    -3.012000000     5.307000000    -0.863000000
O    -4.176000000     5.490000000    -0.206000000
C    -5.138000000     4.512000000    -0.056000000
C    -5.043000000     3.552000000     0.915000000
H    -4.149000000     3.416000000     1.518000000
C    -6.302000000     4.712000000    -0.687000000
H    -6.259000000     5.522000000    -1.410000000
C    -7.480000000     3.940000000    -0.425000000
H    -8.379000000     4.051000000    -1.025000000
C    -7.416000000     2.907000000     0.503000000
H    -8.302000000     2.352000000     0.800000000
C    -6.169000000     2.747000000     1.182000000
O    -6.200000000     1.847000000     2.190000000
C    -5.408000000     0.718000000     2.158000000
C    -5.024000000     0.117000000     3.396000000
H    -5.442000000     0.562000000     4.295000000
C    -4.221000000    -0.975000000     3.457000000
O    -3.881000000    -1.413000000     4.669000000
C    -3.346000000    -2.591000000     4.896000000
C    -2.007000000    -2.762000000     5.114000000
H    -1.415000000    -1.850000000     5.096000000
C    -4.114000000    -3.710000000     4.800000000
H    -5.125000000    -3.552000000     4.434000000
C    -3.635000000    -5.032000000     5.029000000
H    -4.285000000    -5.903000000     5.015000000
C    -2.271000000    -5.145000000     5.363000000
H    -1.813000000    -6.125000000     5.471000000
C    -1.458000000    -3.989000000     5.436000000
O    -0.150000000    -4.115000000     5.783000000
C     0.766000000    -3.826000000     4.854000000
C     2.059000000    -3.607000000     5.376000000
H     2.221000000    -3.570000000     6.451000000
C     3.093000000    -3.550000000     4.438000000
O     4.398000000    -3.393000000     4.856000000
C     5.249000000    -2.472000000     4.289000000
C     4.763000000    -1.117000000     4.112000000
H     3.809000000    -0.833000000     4.548000000
C     6.483000000    -2.877000000     3.943000000
H     6.909000000    -3.873000000     4.030000000
C     7.334000000    -1.984000000     3.278000000
H     8.360000000    -2.196000000     2.990000000
C     6.970000000    -0.621000000     3.179000000
H     7.631000000     0.089000000     2.690000000
C     5.644000000    -0.230000000     3.538000000
O     5.380000000     1.099000000     3.415000000
C     4.879000000     1.734000000     2.295000000
C     4.468000000     3.048000000     2.369000000
H     4.596000000     3.553000000     3.324000000
C     4.016000000     3.723000000     1.242000000
O     3.729000000     5.109000000     1.387000000
C     3.343000000     5.949000000     0.398000000
C     4.258000000     6.795000000    -0.272000000
H     5.301000000     6.816000000     0.033000000
C     3.796000000     7.632000000    -1.202000000
H     4.478000000     8.289000000    -1.736000000
C     2.461000000     7.818000000    -1.433000000
H     2.008000000     8.534000000    -2.114000000
C     1.567000000     6.907000000    -0.849000000
C     2.001000000     5.997000000     0.037000000
H     1.335000000     5.326000000     0.574000000
C     1.027000000     1.737000000     2.198000000
H     1.536000000     2.660000000     2.462000000
C     0.589000000     1.541000000     0.929000000
H     0.821000000     2.232000000     0.123000000
C    -0.046000000     0.370000000     0.522000000
C    -0.386000000     0.022000000    -0.906000000
H     0.331000000     0.466000000    -1.599000000
H    -0.479000000    -1.045000000    -1.118000000
H    -1.366000000     0.453000000    -1.123000000
C    -0.241000000    -0.607000000     1.473000000
H    -0.704000000    -1.555000000     1.213000000
C     0.071000000    -0.379000000     2.800000000
H    -0.160000000    -1.090000000     3.589000000
C     0.790000000     0.771000000     3.205000000
C     1.150000000     1.033000000     4.655000000
O     0.797000000     0.143000000     5.405000000
O     1.554000000     2.090000000     5.055000000
O     0.669000000     3.050000000     7.585000000
H     1.003000000     2.706000000     6.757000000
H     0.146000000     3.812000000     7.334000000
O    -0.351000000     7.063000000     4.181000000
H    -0.233000000     7.642000000     4.933000000
H    -0.802000000     6.297000000     4.537000000
O    -1.530000000     0.915000000     6.787000000
H    -2.263000000     0.488000000     6.343000000
H    -0.755000000     0.617000000     6.310000000
O     0.943000000    -0.162000000     8.032000000
H     0.033000000     0.102000000     7.898000000
H     1.361000000    -0.020000000     7.183000000
O     2.054000000     6.678000000     3.001000000
H     2.094000000     5.747000000     3.221000000
H     1.193000000     6.960000000     3.310000000
O    -2.138000000     4.327000000     8.976000000
H    -2.777000000     4.447000000     9.679000000
H    -1.773000000     3.455000000     9.131000000
O     0.952000000     4.614000000     4.248000000
H     1.012000000     3.709000000     4.553000000
H     0.958000000     5.138000000     5.049000000
O     1.600000000     2.310000000    10.203000000
H     1.297000000     2.279000000     9.295000000
H     2.432000000     2.782000000    10.161000000
O     5.173000000    -1.718000000     7.626000000
H     4.506000000    -1.059000000     7.820000000
H     5.994000000    -1.226000000     7.598000000
O    -0.809000000     5.337000000     6.953000000
H    -1.435000000     5.290000000     6.231000000
H    -1.192000000     4.787000000     7.637000000
O    -1.920000000     3.380000000     2.792000000
H    -1.474000000     3.764000000     2.037000000
H    -1.645000000     2.463000000     2.791000000
O    -1.894000000     1.661000000     9.217000000
H    -1.686000000     1.517000000     8.294000000
H    -2.829000000     1.472000000     9.284000000
O     5.198000000     2.324000000     8.581000000
H     4.867000000     2.137000000     7.703000000
H     4.939000000     1.563000000     9.101000000
O     3.042000000     6.933000000     5.617000000
H     3.422000000     6.152000000     6.018000000
H     3.077000000     6.761000000     4.676000000
O    -2.536000000     5.194000000     4.734000000
H    -2.222000000     4.519000000     4.132000000
H    -3.486000000     5.191000000     4.623000000
O    -0.306000000    -2.645000000     8.298000000
H    -0.792000000    -2.298000000     9.046000000
H    -0.043000000    -1.870000000     7.802000000
O     1.842000000    -1.064000000    10.664000000
H     1.172000000    -1.741000000    10.753000000
H     1.496000000    -0.469000000     9.999000000
O     3.991000000     1.697000000     6.079000000
H     3.111000000     2.022000000     5.887000000
H     4.384000000     1.546000000     5.219000000
O     4.640000000     4.724000000     6.346000000
H     4.908000000     3.882000000     6.714000000
H     5.233000000     5.360000000     6.748000000
