218
-1436.28096
C    -4.595000000    -2.157000000     1.341000000
H    -4.154000000    -3.147000000     1.264000000
C    -4.677000000    -1.394000000     0.231000000
C    -5.361000000    -0.176000000     0.273000000
H    -5.509000000     0.432000000    -0.616000000
C    -3.811000000    -1.788000000    -0.997000000
O    -3.485000000    -3.227000000    -0.996000000
H    -2.855000000    -1.249000000    -0.915000000
O    -4.409000000    -1.376000000    -2.278000000
C    -3.528000000    -0.820000000    -3.220000000
C    -3.344000000     0.539000000    -3.195000000
H    -3.958000000     1.167000000    -2.554000000
C    -2.462000000     1.207000000    -4.052000000
O    -2.215000000     2.549000000    -3.842000000
C    -1.496000000     0.416000000    -4.731000000
C    -0.362000000     0.964000000    -5.467000000
H    -0.195000000     0.282000000    -6.303000000
C     0.881000000     1.148000000    -4.582000000
C     1.874000000     0.174000000    -4.641000000
H     1.706000000    -0.739000000    -5.207000000
H    -0.687000000     1.918000000    -5.886000000
C    -1.732000000    -0.966000000    -4.809000000
H    -0.981000000    -1.580000000    -5.300000000
C    -2.678000000    -1.605000000    -3.950000000
C    -2.626000000    -3.121000000    -3.786000000
H    -2.320000000    -3.553000000    -4.741000000
H    -3.647000000    -3.458000000    -3.592000000
C    -1.716000000    -3.606000000    -2.650000000
C    -0.356000000    -3.980000000    -2.900000000
H     0.042000000    -4.040000000    -3.910000000
C    -2.222000000    -3.690000000    -1.326000000
C    -1.462000000    -4.156000000    -0.289000000
H    -1.912000000    -4.309000000     0.688000000
C    -0.117000000    -4.435000000    -0.457000000
O     0.618000000    -4.635000000     0.748000000
C     1.616000000    -3.640000000     1.168000000
C     1.584000000    -3.408000000     2.670000000
C     2.706000000    -2.915000000     3.306000000
H     3.660000000    -2.758000000     2.809000000
C     0.365000000    -3.539000000     3.354000000
H    -0.533000000    -3.748000000     2.778000000
O     2.874000000    -4.086000000     0.555000000
H     1.393000000    -2.682000000     0.676000000
C     0.399000000    -4.458000000    -1.791000000
C     1.832000000    -4.896000000    -2.042000000
H     1.851000000    -5.375000000    -3.023000000
H     2.267000000    -5.660000000    -1.395000000
C     2.750000000    -3.697000000    -1.930000000
C     3.001000000    -2.897000000    -3.002000000
H     2.548000000    -3.134000000    -3.961000000
C     3.211000000    -3.366000000    -0.604000000
C     4.070000000    -2.264000000    -0.443000000
H     4.303000000    -1.966000000     0.576000000
C     4.314000000    -1.410000000    -1.470000000
O     4.996000000    -0.266000000    -1.203000000
C     4.317000000     0.910000000    -1.004000000
C     4.871000000     1.767000000     0.167000000
C     5.407000000     1.078000000     1.229000000
H     5.508000000     0.002000000     1.110000000
C     4.608000000     3.109000000     0.266000000
H     4.204000000     3.656000000    -0.582000000
O     4.227000000     1.656000000    -2.248000000
H     3.257000000     0.682000000    -0.818000000
C     3.806000000    -1.767000000    -2.746000000
C     4.020000000    -0.760000000    -3.848000000
H     3.983000000    -1.426000000    -4.712000000
H     5.051000000    -0.400000000    -3.811000000
C     3.011000000     0.325000000    -3.843000000
C     3.200000000     1.486000000    -3.131000000
C     2.288000000     2.537000000    -3.135000000
H     2.392000000     3.448000000    -2.552000000
C     1.023000000     2.292000000    -3.807000000
O     0.035000000     3.239000000    -3.578000000
C    -1.163000000     2.869000000    -2.951000000
H    -1.008000000     1.907000000    -2.440000000
C    -1.659000000     3.822000000    -1.867000000
C    -2.958000000     4.317000000    -1.801000000
H    -3.731000000     3.887000000    -2.433000000
C    -0.788000000     4.172000000    -0.812000000
H     0.189000000     3.723000000    -0.654000000
C    -1.220000000     5.144000000     0.156000000
O    -0.293000000     5.484000000     1.124000000
C    -2.543000000     5.643000000     0.127000000
H    -2.920000000     6.334000000     0.876000000
C    -3.448000000     5.148000000    -0.824000000
O    -4.801000000     5.354000000    -0.601000000
C    -5.865000000     4.476000000    -0.413000000
C    -5.649000000     3.323000000     0.426000000
H    -4.730000000     3.081000000     0.953000000
C    -7.053000000     4.638000000    -1.139000000
H    -7.095000000     5.426000000    -1.887000000
C    -8.130000000     3.799000000    -0.936000000
H    -9.092000000     3.875000000    -1.436000000
C    -7.999000000     2.752000000    -0.005000000
H    -8.859000000     2.122000000     0.207000000
C    -6.762000000     2.516000000     0.678000000
O    -6.629000000     1.446000000     1.503000000
C    -5.918000000     0.289000000     1.450000000
C    -5.900000000    -0.522000000     2.548000000
H    -6.543000000    -0.245000000     3.380000000
C    -5.233000000    -1.733000000     2.532000000
O    -5.289000000    -2.496000000     3.705000000
C    -4.282000000    -3.355000000     4.049000000
C    -3.087000000    -2.870000000     4.502000000
H    -3.008000000    -1.796000000     4.650000000
C    -4.491000000    -4.712000000     3.969000000
H    -5.349000000    -5.104000000     3.429000000
C    -3.522000000    -5.587000000     4.170000000
H    -3.749000000    -6.607000000     3.871000000
C    -2.274000000    -5.115000000     4.575000000
H    -1.516000000    -5.800000000     4.947000000
C    -2.092000000    -3.748000000     4.898000000
O    -0.938000000    -3.186000000     5.308000000
C     0.291000000    -3.225000000     4.704000000
C     1.401000000    -2.891000000     5.343000000
H     1.251000000    -2.700000000     6.402000000
C     2.640000000    -2.750000000     4.673000000
O     3.728000000    -2.277000000     5.419000000
C     4.999000000    -1.850000000     4.898000000
C     5.189000000    -0.560000000     4.514000000
H     4.422000000     0.151000000     4.811000000
C     5.971000000    -2.800000000     4.526000000
H     5.858000000    -3.826000000     4.867000000
C     7.122000000    -2.388000000     3.840000000
H     7.861000000    -3.127000000     3.540000000
C     7.305000000    -1.017000000     3.503000000
H     8.160000000    -0.673000000     2.925000000
C     6.297000000    -0.117000000     3.861000000
O     6.440000000     1.217000000     3.420000000
C     5.697000000     1.789000000     2.402000000
C     5.227000000     3.104000000     2.512000000
H     5.406000000     3.721000000     3.389000000
C     4.758000000     3.798000000     1.412000000
O     4.442000000     5.091000000     1.409000000
C     3.313000000     5.702000000     0.923000000
C     3.455000000     6.801000000     0.052000000
H     4.472000000     6.998000000    -0.278000000
C     2.343000000     7.431000000    -0.478000000
H     2.517000000     8.251000000    -1.171000000
C     1.082000000     7.059000000    -0.106000000
H     0.172000000     7.534000000    -0.463000000
C     0.973000000     6.026000000     0.803000000
C     2.053000000     5.257000000     1.286000000
H     1.879000000     4.363000000     1.878000000
C     1.643000000     1.193000000     2.523000000
H     2.511000000     1.825000000     2.688000000
C     1.252000000     1.130000000     1.162000000
H     1.695000000     1.832000000     0.460000000
C     0.314000000     0.173000000     0.790000000
C    -0.054000000    -0.109000000    -0.671000000
H    -0.047000000    -1.196000000    -0.772000000
H    -1.075000000     0.279000000    -0.668000000
H     0.607000000     0.401000000    -1.374000000
C    -0.424000000    -0.501000000     1.768000000
H    -1.157000000    -1.236000000     1.443000000
C    -0.111000000    -0.369000000     3.102000000
H    -0.674000000    -0.809000000     3.921000000
C     0.943000000     0.437000000     3.470000000
C     1.171000000     0.704000000     4.919000000
O     0.283000000     0.819000000     5.737000000
O     2.282000000     0.933000000     5.331000000
O    -1.804000000     2.012000000     2.513000000
H    -1.121000000     1.490000000     2.935000000
H    -1.796000000     1.723000000     1.600000000
O     0.343000000     3.053000000     7.380000000
H     0.492000000     2.232000000     6.912000000
H     0.915000000     3.685000000     6.944000000
O     5.373000000     4.593000000     7.910000000
H     4.494000000     4.426000000     8.249000000
H     5.233000000     5.145000000     7.141000000
O    -2.111000000    -0.916000000     9.169000000
H    -2.649000000    -0.970000000     8.380000000
H    -1.247000000    -0.650000000     8.853000000
O     0.465000000    -0.663000000     7.962000000
H     0.557000000    -0.056000000     7.228000000
H     1.211000000    -1.256000000     7.877000000
O     3.406000000     3.895000000     9.554000000
H     3.069000000     3.010000000     9.419000000
H     2.694000000     4.358000000     9.995000000
O    -2.361000000     1.612000000     6.426000000
H    -2.678000000     0.740000000     6.662000000
H    -1.506000000     1.455000000     6.024000000
O     0.378000000     5.064000000     4.486000000
H    -0.351000000     4.445000000     4.474000000
H     1.157000000     4.515000000     4.575000000
O     3.152000000    -0.351000000     7.463000000
H     3.611000000    -1.124000000     7.135000000
H     2.871000000     0.113000000     6.674000000
O    -2.449000000     3.512000000     8.517000000
H    -2.178000000     4.025000000     7.756000000
H    -2.721000000     2.669000000     8.153000000
O    -2.291000000     3.947000000     4.576000000
H    -2.231000000     3.347000000     3.832000000
H    -2.427000000     3.377000000     5.333000000
O     6.474000000     2.076000000     6.850000000
H     6.017000000     1.977000000     6.015000000
H     6.043000000     2.820000000     7.272000000
O     0.840000000     6.911000000     7.558000000
H     1.521000000     7.583000000     7.538000000
H     0.987000000     6.398000000     6.764000000
O     2.040000000     1.239000000     9.437000000
H     2.241000000     0.669000000    10.179000000
H     2.214000000     0.700000000     8.666000000
O    -3.989000000    -0.609000000     6.884000000
H    -4.307000000    -1.491000000     7.074000000
H    -4.757000000    -0.048000000     6.996000000
O     6.840000000    -0.274000000     8.086000000
H     6.759000000     0.510000000     7.542000000
H     6.090000000    -0.815000000     7.840000000
O    -0.379000000     2.364000000     9.802000000
H     0.366000000     1.976000000     9.342000000
H    -0.751000000     2.985000000     9.176000000
O     0.436000000    -3.702000000     8.514000000
H     1.159000000    -3.810000000     9.132000000
H    -0.092000000    -2.994000000     8.884000000
O     2.806000000     3.643000000     5.314000000
H     2.626000000     2.703000000     5.324000000
H     3.736000000     3.710000000     5.528000000
