218
-1440.12779
C    -3.902000000    -2.875000000     1.328000000
H    -3.619000000    -3.896000000     1.084000000
C    -3.745000000    -1.969000000     0.332000000
C    -4.140000000    -0.729000000     0.586000000
H    -3.872000000    -0.009000000    -0.182000000
C    -3.049000000    -2.213000000    -0.963000000
O    -2.771000000    -3.638000000    -1.098000000
H    -2.095000000    -1.672000000    -0.877000000
O    -3.779000000    -1.797000000    -2.158000000
C    -3.035000000    -1.124000000    -3.047000000
C    -3.186000000     0.217000000    -3.122000000
H    -3.814000000     0.685000000    -2.368000000
C    -2.381000000     0.932000000    -3.984000000
O    -2.499000000     2.312000000    -3.916000000
C    -1.338000000     0.301000000    -4.742000000
C    -0.256000000     1.065000000    -5.606000000
H     0.099000000     0.484000000    -6.459000000
C     0.879000000     1.530000000    -4.658000000
C     1.965000000     0.696000000    -4.446000000
H     2.071000000    -0.263000000    -4.946000000
H    -0.859000000     1.880000000    -6.012000000
C    -1.233000000    -1.086000000    -4.647000000
H    -0.421000000    -1.540000000    -5.209000000
C    -2.114000000    -1.795000000    -3.843000000
C    -2.028000000    -3.332000000    -3.836000000
H    -1.691000000    -3.596000000    -4.840000000
H    -3.023000000    -3.782000000    -3.822000000
C    -1.062000000    -3.792000000    -2.744000000
C     0.280000000    -4.022000000    -2.968000000
H     0.746000000    -3.672000000    -3.886000000
C    -1.526000000    -4.049000000    -1.450000000
C    -0.752000000    -4.596000000    -0.462000000
H    -1.279000000    -4.766000000     0.473000000
C     0.638000000    -4.841000000    -0.652000000
O     1.428000000    -5.068000000     0.440000000
C     1.997000000    -3.906000000     1.083000000
C     1.831000000    -3.890000000     2.561000000
C     2.661000000    -3.055000000     3.379000000
H     3.428000000    -2.428000000     2.932000000
C     0.807000000    -4.586000000     3.166000000
H     0.103000000    -5.208000000     2.619000000
O     3.359000000    -3.703000000     0.606000000
H     1.431000000    -3.076000000     0.635000000
C     1.157000000    -4.512000000    -1.922000000
C     2.657000000    -4.362000000    -2.118000000
H     2.915000000    -4.616000000    -3.149000000
H     3.165000000    -5.155000000    -1.565000000
C     3.277000000    -2.996000000    -1.696000000
C     3.391000000    -2.035000000    -2.654000000
H     3.094000000    -2.214000000    -3.684000000
C     3.628000000    -2.743000000    -0.357000000
C     4.088000000    -1.480000000     0.025000000
H     4.357000000    -1.300000000     1.063000000
C     4.257000000    -0.535000000    -0.957000000
O     4.668000000     0.693000000    -0.576000000
C     3.724000000     1.761000000    -0.572000000
C     3.809000000     2.504000000     0.702000000
C     4.382000000     2.012000000     1.892000000
H     4.800000000     1.011000000     1.815000000
C     3.276000000     3.802000000     0.701000000
H     2.727000000     4.116000000    -0.184000000
O     3.721000000     2.537000000    -1.744000000
H     2.733000000     1.285000000    -0.578000000
C     3.996000000    -0.867000000    -2.274000000
C     4.233000000     0.172000000    -3.351000000
H     4.429000000    -0.406000000    -4.257000000
H     5.072000000     0.790000000    -3.024000000
C     2.979000000     1.121000000    -3.599000000
C     2.864000000     2.287000000    -2.852000000
C     1.652000000     3.007000000    -2.882000000
H     1.487000000     3.881000000    -2.258000000
C     0.680000000     2.630000000    -3.846000000
O    -0.433000000     3.408000000    -3.780000000
C    -1.569000000     2.933000000    -2.934000000
H    -1.268000000     2.126000000    -2.250000000
C    -2.223000000     4.158000000    -2.250000000
C    -3.558000000     4.130000000    -1.830000000
H    -4.154000000     3.283000000    -2.159000000
C    -1.531000000     5.313000000    -1.920000000
H    -0.534000000     5.335000000    -2.353000000
C    -2.019000000     6.296000000    -1.078000000
O    -1.188000000     7.345000000    -0.742000000
C    -3.324000000     6.138000000    -0.589000000
H    -3.747000000     6.918000000     0.038000000
C    -4.143000000     5.103000000    -1.016000000
O    -5.373000000     4.955000000    -0.417000000
C    -5.840000000     3.682000000    -0.172000000
C    -5.307000000     2.928000000     0.861000000
H    -4.540000000     3.432000000     1.444000000
C    -6.819000000     3.215000000    -0.968000000
H    -7.258000000     3.810000000    -1.765000000
C    -7.427000000     1.958000000    -0.733000000
H    -8.233000000     1.598000000    -1.367000000
C    -6.897000000     1.194000000     0.341000000
H    -7.374000000     0.250000000     0.590000000
C    -5.732000000     1.630000000     1.038000000
O    -5.156000000     0.865000000     2.062000000
C    -4.781000000    -0.388000000     1.774000000
C    -5.042000000    -1.345000000     2.762000000
H    -5.509000000    -1.108000000     3.714000000
C    -4.478000000    -2.602000000     2.594000000
O    -4.619000000    -3.592000000     3.491000000
C    -3.806000000    -4.624000000     3.659000000
C    -2.601000000    -4.406000000     4.285000000
H    -2.327000000    -3.425000000     4.664000000
C    -4.095000000    -5.940000000     3.337000000
H    -5.068000000    -6.083000000     2.873000000
C    -3.194000000    -6.952000000     3.557000000
H    -3.430000000    -7.979000000     3.293000000
C    -1.921000000    -6.681000000     4.202000000
H    -1.234000000    -7.463000000     4.513000000
C    -1.700000000    -5.421000000     4.624000000
O    -0.449000000    -5.174000000     5.185000000
C     0.639000000    -4.588000000     4.572000000
C     1.489000000    -3.759000000     5.344000000
H     1.305000000    -3.567000000     6.398000000
C     2.483000000    -2.995000000     4.756000000
O     3.171000000    -2.106000000     5.566000000
C     4.208000000    -1.364000000     5.138000000
C     4.010000000     0.042000000     4.982000000
H     3.074000000     0.465000000     5.337000000
C     5.396000000    -1.916000000     4.654000000
H     5.441000000    -2.976000000     4.418000000
C     6.345000000    -1.056000000     4.117000000
H     7.273000000    -1.533000000     3.812000000
C     6.207000000     0.267000000     3.977000000
H     7.059000000     0.833000000     3.611000000
C     5.011000000     0.894000000     4.443000000
O     4.754000000     2.209000000     4.282000000
C     4.370000000     2.822000000     3.074000000
C     3.782000000     4.067000000     3.035000000
H     3.879000000     4.646000000     3.949000000
C     3.214000000     4.540000000     1.870000000
O     2.498000000     5.710000000     1.879000000
C     2.024000000     6.314000000     0.704000000
C     2.866000000     6.654000000    -0.327000000
H     3.924000000     6.539000000    -0.105000000
C     2.393000000     7.235000000    -1.497000000
H     3.070000000     7.535000000    -2.293000000
C     1.035000000     7.491000000    -1.598000000
H     0.756000000     7.956000000    -2.540000000
C     0.176000000     7.148000000    -0.590000000
C     0.640000000     6.607000000     0.632000000
H    -0.001000000     6.521000000     1.506000000
C    -0.351000000     2.394000000     1.646000000
H    -0.008000000     3.418000000     1.766000000
C     0.013000000     1.682000000     0.553000000
H     0.530000000     2.162000000    -0.274000000
C    -0.378000000     0.339000000     0.472000000
C     0.167000000    -0.414000000    -0.720000000
H     1.191000000    -0.060000000    -0.858000000
H     0.182000000    -1.505000000    -0.693000000
H    -0.319000000    -0.181000000    -1.670000000
C    -1.082000000    -0.285000000     1.565000000
H    -1.159000000    -1.367000000     1.640000000
C    -1.549000000     0.530000000     2.569000000
H    -2.103000000     0.143000000     3.420000000
C    -1.187000000     1.896000000     2.630000000
C    -1.567000000     2.643000000     3.918000000
O    -2.219000000     2.189000000     4.852000000
O    -1.119000000     3.780000000     4.049000000
O     1.428000000     8.270000000     4.229000000
H     1.209000000     7.396000000     3.905000000
H     1.079000000     8.289000000     5.121000000
O    -0.945000000     2.282000000     8.864000000
H    -1.296000000     3.147000000     8.653000000
H    -0.381000000     2.065000000     8.121000000
O    -3.966000000    -1.918000000     7.467000000
H    -3.910000000    -1.635000000     8.380000000
H    -3.310000000    -1.390000000     7.012000000
O    -7.849000000     3.223000000     5.407000000
H    -7.111000000     2.705000000     5.728000000
H    -8.429000000     2.583000000     4.993000000
O    -6.323000000     1.206000000     5.897000000
H    -6.749000000     1.007000000     6.731000000
H    -6.344000000     0.380000000     5.415000000
O    -4.601000000     2.669000000    10.320000000
H    -3.817000000     2.176000000    10.561000000
H    -4.364000000     3.113000000     9.506000000
O    -3.480000000     3.788000000     8.110000000
H    -3.557000000     4.740000000     8.174000000
H    -4.041000000     3.551000000     7.371000000
O     1.890000000     2.765000000     9.328000000
H     2.282000000     1.903000000     9.185000000
H     0.955000000     2.589000000     9.433000000
O     0.598000000    -1.153000000     6.791000000
H     0.305000000    -0.262000000     6.601000000
H     0.182000000    -1.691000000     6.117000000
O    -5.470000000     6.180000000     1.927000000
H    -5.018000000     5.613000000     2.552000000
H    -5.488000000     5.675000000     1.114000000
O     3.661000000     3.476000000     6.382000000
H     4.018000000     3.022000000     5.619000000
H     2.774000000     3.723000000     6.119000000
O     0.342000000     5.712000000     5.009000000
H    -0.283000000     5.092000000     4.633000000
H     0.678000000     5.270000000     5.788000000
O    -3.724000000     8.125000000     4.456000000
H    -3.819000000     8.432000000     3.554000000
H    -3.794000000     7.173000000     4.394000000
O    -2.507000000     0.127000000     6.587000000
H    -2.230000000     0.745000000     7.264000000
H    -2.541000000     0.650000000     5.785000000
O    -4.596000000     3.214000000     5.545000000
H    -5.134000000     2.462000000     5.298000000
H    -3.697000000     2.932000000     5.377000000
O    -3.520000000     5.169000000     3.962000000
H    -3.798000000     4.741000000     4.772000000
H    -2.593000000     4.946000000     3.879000000
O     0.176000000     2.217000000     6.222000000
H     0.462000000     3.127000000     6.306000000
H    -0.592000000     2.259000000     5.652000000
O    -1.453000000     6.970000000     6.865000000
H    -0.532000000     6.921000000     7.121000000
H    -1.443000000     6.865000000     5.913000000
O     1.072000000     4.727000000     7.457000000
H     1.467000000     4.063000000     8.022000000
H     0.931000000     5.479000000     8.033000000
