218
-1471.00415
C    -3.745000000    -3.574000000     1.114000000
H    -2.976000000    -4.323000000     0.943000000
C    -3.892000000    -2.497000000     0.234000000
C    -4.750000000    -1.415000000     0.565000000
H    -4.741000000    -0.493000000    -0.010000000
C    -3.235000000    -2.548000000    -1.134000000
O    -2.812000000    -3.823000000    -1.573000000
H    -2.411000000    -1.821000000    -1.149000000
O    -3.977000000    -2.166000000    -2.330000000
C    -3.286000000    -1.254000000    -3.111000000
C    -3.516000000     0.116000000    -2.955000000
H    -4.309000000     0.419000000    -2.276000000
C    -2.725000000     1.035000000    -3.666000000
O    -2.933000000     2.353000000    -3.377000000
C    -1.710000000     0.603000000    -4.528000000
C    -0.873000000     1.625000000    -5.246000000
H    -0.446000000     1.172000000    -6.143000000
C     0.319000000     2.035000000    -4.457000000
C     1.472000000     1.237000000    -4.541000000
H     1.536000000     0.421000000    -5.256000000
H    -1.421000000     2.519000000    -5.550000000
C    -1.630000000    -0.741000000    -4.762000000
H    -0.921000000    -1.045000000    -5.528000000
C    -2.336000000    -1.697000000    -4.011000000
C    -2.024000000    -3.130000000    -4.278000000
H    -1.603000000    -3.309000000    -5.270000000
H    -2.951000000    -3.707000000    -4.270000000
C    -1.053000000    -3.640000000    -3.185000000
C     0.316000000    -3.736000000    -3.501000000
H     0.647000000    -3.335000000    -4.455000000
C    -1.447000000    -3.908000000    -1.853000000
C    -0.554000000    -4.322000000    -0.902000000
H    -0.881000000    -4.514000000     0.116000000
C     0.808000000    -4.372000000    -1.244000000
O     1.634000000    -4.607000000    -0.237000000
C     2.356000000    -3.576000000     0.417000000
C     2.292000000    -3.617000000     1.920000000
C     3.219000000    -2.838000000     2.707000000
H     3.892000000    -2.157000000     2.192000000
C     1.440000000    -4.481000000     2.628000000
H     0.622000000    -4.996000000     2.129000000
O     3.627000000    -3.496000000    -0.201000000
H     1.898000000    -2.608000000     0.163000000
C     1.322000000    -4.091000000    -2.512000000
C     2.787000000    -4.034000000    -2.852000000
H     2.795000000    -4.122000000    -3.940000000
H     3.283000000    -4.876000000    -2.364000000
C     3.445000000    -2.727000000    -2.441000000
C     3.451000000    -1.632000000    -3.338000000
H     3.016000000    -1.669000000    -4.334000000
C     3.843000000    -2.517000000    -1.148000000
C     4.287000000    -1.253000000    -0.727000000
H     4.502000000    -1.055000000     0.320000000
C     4.429000000    -0.206000000    -1.635000000
O     4.844000000     1.074000000    -1.236000000
C     3.841000000     2.095000000    -0.926000000
C     4.025000000     2.832000000     0.404000000
C     4.898000000     2.332000000     1.328000000
H     5.651000000     1.572000000     1.133000000
C     3.104000000     3.792000000     0.771000000
H     2.329000000     4.106000000     0.076000000
O     3.555000000     2.980000000    -2.003000000
H     2.908000000     1.530000000    -0.785000000
C     4.004000000    -0.381000000    -2.967000000
C     3.941000000     0.816000000    -3.940000000
H     4.034000000     0.468000000    -4.971000000
H     4.794000000     1.483000000    -3.804000000
C     2.607000000     1.561000000    -3.781000000
C     2.487000000     2.621000000    -2.874000000
C     1.318000000     3.409000000    -2.789000000
H     1.218000000     4.194000000    -2.043000000
C     0.220000000     3.110000000    -3.591000000
O    -0.922000000     3.758000000    -3.308000000
C    -1.917000000     3.009000000    -2.502000000
H    -1.445000000     2.325000000    -1.781000000
C    -2.649000000     3.984000000    -1.568000000
C    -3.902000000     3.672000000    -1.032000000
H    -4.313000000     2.697000000    -1.281000000
C    -1.973000000     5.087000000    -1.091000000
H    -0.965000000     5.282000000    -1.448000000
C    -2.552000000     5.856000000    -0.066000000
O    -1.868000000     6.976000000     0.544000000
C    -3.869000000     5.652000000     0.321000000
H    -4.153000000     6.312000000     1.137000000
C    -4.472000000     4.519000000    -0.085000000
O    -5.765000000     4.350000000     0.354000000
C    -6.408000000     3.140000000     0.653000000
C    -5.745000000     2.133000000     1.397000000
H    -4.737000000     2.241000000     1.790000000
C    -7.775000000     3.010000000     0.392000000
H    -8.510000000     3.738000000     0.058000000
C    -8.424000000     1.824000000     0.680000000
H    -9.461000000     1.745000000     0.364000000
C    -7.733000000     0.770000000     1.293000000
H    -8.150000000    -0.192000000     1.581000000
C    -6.358000000     0.850000000     1.603000000
O    -5.738000000    -0.140000000     2.341000000
C    -5.198000000    -1.303000000     1.913000000
C    -4.954000000    -2.367000000     2.753000000
H    -5.212000000    -2.368000000     3.808000000
C    -4.406000000    -3.530000000     2.293000000
O    -4.257000000    -4.533000000     3.260000000
C    -3.113000000    -5.313000000     3.453000000
C    -1.905000000    -4.747000000     3.907000000
H    -1.860000000    -3.672000000     4.058000000
C    -3.251000000    -6.697000000     3.250000000
H    -4.213000000    -7.016000000     2.856000000
C    -2.167000000    -7.511000000     3.527000000
H    -2.267000000    -8.563000000     3.270000000
C    -0.956000000    -6.965000000     4.005000000
H    -0.132000000    -7.669000000     4.085000000
C    -0.855000000    -5.598000000     4.246000000
O     0.352000000    -5.096000000     4.731000000
C     1.401000000    -4.432000000     4.042000000
C     2.269000000    -3.722000000     4.814000000
H     2.068000000    -3.665000000     5.880000000
C     3.251000000    -2.975000000     4.133000000
O     4.135000000    -2.226000000     4.863000000
C     5.065000000    -1.364000000     4.307000000
C     4.798000000     0.052000000     4.234000000
H     3.785000000     0.421000000     4.371000000
C     6.338000000    -1.859000000     3.959000000
H     6.564000000    -2.918000000     4.051000000
C     7.366000000    -0.938000000     3.584000000
H     8.397000000    -1.235000000     3.411000000
C     7.103000000     0.461000000     3.624000000
H     7.916000000     1.116000000     3.320000000
C     5.786000000     0.917000000     3.771000000
O     5.548000000     2.286000000     3.693000000
C     4.872000000     2.877000000     2.652000000
C     3.990000000     3.900000000     2.983000000
H     3.886000000     4.222000000     4.016000000
C     3.093000000     4.313000000     2.033000000
O     2.201000000     5.269000000     2.470000000
C     1.552000000     6.124000000     1.582000000
C     2.302000000     6.985000000     0.818000000
H     3.384000000     6.899000000     0.873000000
C     1.683000000     8.071000000     0.153000000
H     2.222000000     8.776000000    -0.474000000
C     0.272000000     8.101000000     0.086000000
H    -0.183000000     8.863000000    -0.542000000
C    -0.507000000     7.136000000     0.748000000
C     0.162000000     6.182000000     1.527000000
H    -0.425000000     5.464000000     2.093000000
C    -1.154000000     1.639000000     1.952000000
H    -1.130000000     2.664000000     2.314000000
C    -0.556000000     1.431000000     0.690000000
H    -0.138000000     2.238000000     0.093000000
C    -0.523000000     0.194000000     0.071000000
C     0.315000000     0.046000000    -1.178000000
H     0.910000000     0.942000000    -1.365000000
H     0.966000000    -0.830000000    -1.141000000
H    -0.347000000    -0.051000000    -2.041000000
C    -0.968000000    -0.954000000     0.751000000
H    -0.763000000    -1.957000000     0.386000000
C    -1.505000000    -0.729000000     1.999000000
H    -1.947000000    -1.596000000     2.483000000
C    -1.548000000     0.536000000     2.624000000
C    -2.070000000     0.700000000     4.052000000
O    -2.316000000    -0.273000000     4.632000000
O    -2.249000000     1.815000000     4.522000000
O    -0.568000000     1.692000000     8.511000000
H    -0.683000000     2.316000000     7.795000000
H     0.168000000     1.145000000     8.235000000
O    -2.433000000    -0.532000000     8.103000000
H    -2.088000000    -1.013000000     7.350000000
H    -1.878000000     0.245000000     8.165000000
O    -6.361000000    -1.995000000     5.853000000
H    -7.237000000    -2.137000000     6.212000000
H    -6.348000000    -1.069000000     5.613000000
O     0.103000000    -1.453000000     5.213000000
H    -0.104000000    -2.387000000     5.252000000
H    -0.724000000    -1.034000000     4.976000000
O    -2.889000000    -2.560000000     5.889000000
H    -3.825000000    -2.591000000     6.091000000
H    -2.784000000    -1.767000000     5.364000000
O    -5.499000000     3.170000000     6.061000000
H    -4.990000000     2.710000000     6.729000000
H    -5.521000000     2.565000000     5.319000000
O    -1.440000000     3.588000000     6.546000000
H    -2.192000000     4.077000000     6.879000000
H    -1.811000000     2.994000000     5.893000000
O     1.113000000    -0.821000000     7.980000000
H     0.976000000    -0.932000000     7.039000000
H     2.047000000    -0.628000000     8.065000000
O    -0.737000000    -3.983000000     8.048000000
H    -1.512000000    -3.932000000     7.488000000
H    -0.855000000    -3.278000000     8.685000000
O    -4.301000000     2.771000000     8.733000000
H    -4.162000000     2.628000000     9.669000000
H    -4.534000000     1.908000000     8.391000000
O    -0.926000000     7.085000000     5.339000000
H    -0.800000000     6.136000000     5.317000000
H    -0.085000000     7.445000000     5.054000000
O    -5.414000000     0.333000000     8.041000000
H    -4.609000000     0.026000000     8.459000000
H    -5.453000000    -0.150000000     7.215000000
O     3.592000000     1.967000000     6.723000000
H     3.033000000     1.523000000     6.085000000
H     3.753000000     1.309000000     7.399000000
O    -4.898000000     0.293000000     5.064000000
H    -3.956000000     0.450000000     4.998000000
H    -5.138000000    -0.081000000     4.216000000
O    -2.605000000     4.532000000     3.920000000
H    -3.290000000     4.416000000     4.579000000
H    -2.347000000     3.642000000     3.683000000
O    -5.449000000     5.405000000     4.446000000
H    -4.720000000     6.007000000     4.597000000
H    -5.395000000     4.778000000     5.168000000
O     1.157000000     1.260000000     5.172000000
H     0.907000000     0.337000000     5.126000000
H     0.578000000     1.697000000     4.548000000
O    -3.228000000     4.951000000     7.681000000
H    -3.634000000     4.242000000     8.179000000
H    -3.387000000     5.735000000     8.207000000
O     0.829000000     5.161000000     6.158000000
H     1.550000000     4.550000000     6.003000000
H     0.103000000     4.607000000     6.443000000
