218
-1464.99524
C    -2.379000000    -4.682000000     1.402000000
H    -1.454000000    -5.077000000     0.990000000
C    -3.128000000    -3.758000000     0.696000000
C    -4.274000000    -3.224000000     1.259000000
H    -4.797000000    -2.467000000     0.680000000
C    -2.635000000    -3.265000000    -0.672000000
O    -2.084000000    -4.382000000    -1.424000000
H    -1.900000000    -2.472000000    -0.470000000
O    -3.751000000    -2.767000000    -1.475000000
C    -3.557000000    -1.654000000    -2.221000000
C    -3.973000000    -0.480000000    -1.640000000
H    -4.462000000    -0.421000000    -0.671000000
C    -3.644000000     0.655000000    -2.320000000
O    -4.001000000     1.876000000    -1.733000000
C    -3.092000000     0.707000000    -3.619000000
C    -2.893000000     1.981000000    -4.364000000
H    -2.717000000     1.851000000    -5.434000000
C    -1.659000000     2.650000000    -3.900000000
C    -0.451000000     2.312000000    -4.492000000
H    -0.457000000     1.628000000    -5.336000000
H    -3.687000000     2.709000000    -4.189000000
C    -2.781000000    -0.499000000    -4.207000000
H    -2.405000000    -0.522000000    -5.226000000
C    -2.952000000    -1.704000000    -3.510000000
C    -2.477000000    -3.076000000    -4.029000000
H    -2.314000000    -2.977000000    -5.104000000
H    -3.234000000    -3.854000000    -3.904000000
C    -1.101000000    -3.425000000    -3.467000000
C     0.141000000    -3.063000000    -4.116000000
H     0.123000000    -2.492000000    -5.040000000
C    -1.000000000    -4.112000000    -2.237000000
C     0.231000000    -4.435000000    -1.665000000
H     0.221000000    -4.963000000    -0.715000000
C     1.398000000    -3.934000000    -2.236000000
O     2.585000000    -4.037000000    -1.515000000
C     2.903000000    -2.807000000    -0.787000000
C     3.316000000    -2.888000000     0.640000000
C     4.327000000    -2.094000000     1.145000000
H     4.777000000    -1.298000000     0.557000000
C     2.771000000    -3.892000000     1.403000000
H     1.982000000    -4.504000000     0.973000000
O     3.930000000    -2.212000000    -1.528000000
H     2.012000000    -2.162000000    -0.755000000
C     1.373000000    -3.285000000    -3.453000000
C     2.610000000    -2.767000000    -4.158000000
H     2.491000000    -2.675000000    -5.240000000
H     3.491000000    -3.404000000    -4.049000000
C     2.873000000    -1.322000000    -3.605000000
C     2.350000000    -0.246000000    -4.344000000
H     1.803000000    -0.469000000    -5.257000000
C     3.560000000    -1.139000000    -2.320000000
C     3.840000000     0.133000000    -1.935000000
H     4.393000000     0.271000000    -1.010000000
C     3.442000000     1.240000000    -2.648000000
O     3.694000000     2.487000000    -2.099000000
C     2.606000000     3.145000000    -1.448000000
C     3.107000000     3.771000000    -0.098000000
C     4.099000000     3.127000000     0.745000000
H     4.516000000     2.201000000     0.358000000
C     2.387000000     4.829000000     0.413000000
H     1.554000000     5.310000000    -0.094000000
O     1.957000000     4.147000000    -2.277000000
H     1.813000000     2.457000000    -1.121000000
C     2.672000000     1.058000000    -3.837000000
C     2.173000000     2.271000000    -4.549000000
H     1.988000000     2.063000000    -5.605000000
H     2.944000000     3.040000000    -4.633000000
C     0.794000000     2.795000000    -3.999000000
C     0.777000000     3.696000000    -2.937000000
C    -0.448000000     4.138000000    -2.406000000
H    -0.420000000     4.898000000    -1.629000000
C    -1.642000000     3.594000000    -2.821000000
O    -2.676000000     3.735000000    -1.943000000
C    -2.875000000     2.569000000    -1.121000000
H    -1.878000000     2.115000000    -1.216000000
C    -3.252000000     2.991000000     0.288000000
C    -3.970000000     2.212000000     1.083000000
H    -4.289000000     1.255000000     0.678000000
C    -2.744000000     4.204000000     0.776000000
H    -2.122000000     4.819000000     0.131000000
C    -3.069000000     4.599000000     2.110000000
O    -2.623000000     5.799000000     2.692000000
C    -3.764000000     3.707000000     2.919000000
H    -3.908000000     3.920000000     3.975000000
C    -4.161000000     2.514000000     2.408000000
O    -4.889000000     1.656000000     3.274000000
C    -5.662000000     0.613000000     2.865000000
C    -5.326000000    -0.685000000     3.186000000
H    -4.495000000    -0.833000000     3.871000000
C    -6.873000000     0.816000000     2.154000000
H    -7.141000000     1.862000000     2.037000000
C    -7.676000000    -0.299000000     1.719000000
H    -8.578000000    -0.188000000     1.122000000
C    -7.261000000    -1.605000000     1.964000000
H    -7.917000000    -2.375000000     1.567000000
C    -6.147000000    -1.763000000     2.808000000
O    -5.821000000    -3.053000000     3.034000000
C    -4.807000000    -3.638000000     2.512000000
C    -4.073000000    -4.605000000     3.194000000
H    -4.344000000    -4.963000000     4.183000000
C    -2.871000000    -5.127000000     2.663000000
O    -2.221000000    -6.131000000     3.301000000
C    -0.882000000    -6.370000000     3.159000000
C     0.158000000    -5.479000000     3.471000000
H    -0.071000000    -4.496000000     3.874000000
C    -0.588000000    -7.596000000     2.658000000
H    -1.456000000    -8.236000000     2.521000000
C     0.749000000    -7.934000000     2.432000000
H     0.951000000    -8.894000000     1.964000000
C     1.772000000    -7.036000000     2.671000000
H     2.806000000    -7.329000000     2.510000000
C     1.503000000    -5.801000000     3.296000000
O     2.592000000    -5.050000000     3.538000000
C     3.145000000    -4.048000000     2.726000000
C     4.074000000    -3.154000000     3.279000000
H     4.229000000    -3.187000000     4.354000000
C     4.696000000    -2.241000000     2.467000000
O     5.694000000    -1.384000000     3.097000000
C     6.321000000    -0.276000000     2.576000000
C     5.641000000     0.862000000     2.485000000
H     4.571000000     0.952000000     2.659000000
C     7.681000000    -0.381000000     2.277000000
H     8.203000000    -1.323000000     2.426000000
C     8.336000000     0.771000000     1.998000000
H     9.409000000     0.787000000     1.822000000
C     7.652000000     2.006000000     2.022000000
H     8.169000000     2.957000000     1.919000000
C     6.278000000     2.060000000     2.220000000
O     5.647000000     3.231000000     2.544000000
C     4.478000000     3.694000000     1.937000000
C     3.784000000     4.765000000     2.429000000
H     4.080000000     5.298000000     3.329000000
C     2.735000000     5.296000000     1.725000000
O     2.063000000     6.291000000     2.307000000
C     0.829000000     6.775000000     2.005000000
C     0.638000000     8.055000000     1.448000000
H     1.551000000     8.598000000     1.219000000
C    -0.682000000     8.492000000     1.276000000
H    -1.019000000     9.449000000     0.885000000
C    -1.811000000     7.748000000     1.621000000
H    -2.795000000     8.209000000     1.613000000
C    -1.539000000     6.549000000     2.215000000
C    -0.265000000     6.041000000     2.336000000
H    -0.188000000     5.055000000     2.788000000
C     0.734000000     1.907000000     3.262000000
H     0.528000000     2.791000000     3.859000000
C     0.435000000     1.887000000     1.908000000
H     0.055000000     2.771000000     1.403000000
C     0.655000000     0.723000000     1.145000000
C     0.351000000     0.710000000    -0.324000000
H    -0.490000000     0.024000000    -0.445000000
H     0.111000000     1.729000000    -0.636000000
H     1.225000000     0.316000000    -0.847000000
C     1.177000000    -0.407000000     1.778000000
H     1.291000000    -1.383000000     1.313000000
C     1.523000000    -0.406000000     3.125000000
H     1.892000000    -1.286000000     3.647000000
C     1.151000000     0.736000000     3.840000000
C     1.368000000     0.709000000     5.348000000
O     1.403000000    -0.320000000     6.031000000
O     1.680000000     1.726000000     5.945000000
O    -3.380000000     3.904000000     7.204000000
H    -4.247000000     4.304000000     7.136000000
H    -3.502000000     3.012000000     6.881000000
O     1.707000000    -1.926000000     8.987000000
H     1.084000000    -2.633000000     8.819000000
H     1.487000000    -1.255000000     8.341000000
O     3.366000000     1.791000000     8.373000000
H     3.871000000     1.677000000     7.568000000
H     2.472000000     1.547000000     8.132000000
O    -0.447000000    -3.851000000     7.743000000
H    -1.193000000    -4.451000000     7.748000000
H     0.315000000    -4.416000000     7.868000000
O    -0.589000000     0.252000000     8.197000000
H    -0.118000000     0.117000000     7.375000000
H    -0.493000000     1.187000000     8.377000000
O    -1.604000000     5.394000000     5.750000000
H    -1.992000000     5.705000000     4.932000000
H    -2.315000000     4.928000000     6.190000000
O     5.262000000     4.437000000     7.192000000
H     6.134000000     4.427000000     6.797000000
H     4.682000000     4.115000000     6.502000000
O     0.082000000    -2.410000000     5.238000000
H    -0.176000000    -2.928000000     6.000000000
H     0.823000000    -1.887000000     5.544000000
O     4.385000000    -0.180000000     6.503000000
H     4.610000000    -1.033000000     6.874000000
H     3.436000000    -0.212000000     6.387000000
O     0.260000000     3.369000000     7.459000000
H     0.825000000     2.919000000     6.830000000
H     0.145000000     4.245000000     7.092000000
O     3.100000000     4.705000000     8.807000000
H     2.580000000     3.905000000     8.731000000
H     3.907000000     4.512000000     8.329000000
O     6.644000000     1.286000000     6.129000000
H     5.753000000     0.935000000     6.132000000
H     6.553000000     2.166000000     5.762000000
O    -1.566000000    -0.440000000     4.087000000
H    -1.142000000    -1.212000000     4.462000000
H    -0.993000000    -0.179000000     3.365000000
O     0.553000000     3.243000000    10.539000000
H     0.481000000     3.452000000     9.608000000
H    -0.335000000     3.002000000    10.800000000
O    -2.071000000     3.020000000     9.488000000
H    -2.979000000     2.718000000     9.457000000
H    -1.896000000     3.341000000     8.603000000
O    -2.367000000    -0.705000000     9.991000000
H    -2.650000000    -1.508000000     9.553000000
H    -1.737000000    -0.312000000     9.388000000
O    -2.797000000     1.329000000     5.699000000
H    -1.851000000     1.471000000     5.738000000
H    -2.908000000     0.639000000     5.045000000
O     1.381000000     6.245000000     5.852000000
H     1.603000000     7.133000000     5.570000000
H     0.425000000     6.237000000     5.888000000
O     3.395000000     3.605000000     5.433000000
H     2.818000000     4.086000000     4.840000000
H     2.934000000     2.783000000     5.600000000
