218
-1468.93146
C    -3.783000000    -4.341000000     0.128000000
H    -3.297000000    -5.131000000    -0.439000000
C    -4.065000000    -3.106000000    -0.433000000
C    -4.769000000    -2.227000000     0.417000000
H    -4.996000000    -1.229000000     0.051000000
C    -3.302000000    -2.504000000    -1.634000000
O    -2.959000000    -3.658000000    -2.436000000
H    -2.397000000    -1.946000000    -1.353000000
O    -4.166000000    -1.731000000    -2.423000000
C    -3.626000000    -0.580000000    -2.964000000
C    -3.819000000     0.582000000    -2.279000000
H    -4.411000000     0.558000000    -1.368000000
C    -3.167000000     1.745000000    -2.668000000
O    -3.339000000     2.846000000    -1.890000000
C    -2.409000000     1.808000000    -3.883000000
C    -1.715000000     3.108000000    -4.383000000
H    -1.540000000     3.135000000    -5.460000000
C    -0.408000000     3.336000000    -3.653000000
C     0.794000000     2.924000000    -4.167000000
H     0.753000000     2.449000000    -5.144000000
H    -2.444000000     3.902000000    -4.214000000
C    -2.258000000     0.597000000    -4.531000000
H    -1.613000000     0.610000000    -5.406000000
C    -2.877000000    -0.569000000    -4.154000000
C    -2.556000000    -1.934000000    -4.811000000
H    -2.293000000    -1.822000000    -5.865000000
H    -3.463000000    -2.539000000    -4.748000000
C    -1.480000000    -2.682000000    -4.077000000
C    -0.110000000    -2.498000000    -4.509000000
H     0.157000000    -1.907000000    -5.381000000
C    -1.724000000    -3.507000000    -2.980000000
C    -0.637000000    -4.018000000    -2.281000000
H    -0.809000000    -4.509000000    -1.327000000
C     0.654000000    -3.719000000    -2.712000000
O     1.636000000    -4.052000000    -1.751000000
C     2.330000000    -3.000000000    -1.038000000
C     2.459000000    -3.357000000     0.447000000
C     3.715000000    -3.162000000     1.101000000
H     4.560000000    -2.787000000     0.529000000
C     1.354000000    -3.735000000     1.240000000
H     0.387000000    -3.973000000     0.803000000
O     3.598000000    -2.769000000    -1.572000000
H     1.784000000    -2.046000000    -1.081000000
C     0.973000000    -3.011000000    -3.864000000
C     2.379000000    -2.721000000    -4.282000000
H     2.311000000    -2.633000000    -5.368000000
H     2.974000000    -3.576000000    -3.952000000
C     3.058000000    -1.519000000    -3.612000000
C     3.025000000    -0.224000000    -4.177000000
H     2.480000000    -0.259000000    -5.117000000
C     3.732000000    -1.643000000    -2.388000000
C     4.284000000    -0.535000000    -1.732000000
H     4.764000000    -0.756000000    -0.782000000
C     4.076000000     0.741000000    -2.266000000
O     4.518000000     1.777000000    -1.320000000
C     3.485000000     2.550000000    -0.630000000
C     3.794000000     2.723000000     0.828000000
C     4.545000000     1.774000000     1.544000000
H     4.870000000     0.839000000     1.095000000
C     3.388000000     3.962000000     1.432000000
H     2.876000000     4.735000000     0.866000000
O     3.169000000     3.715000000    -1.372000000
H     2.617000000     1.878000000    -0.562000000
C     3.378000000     0.931000000    -3.460000000
C     3.270000000     2.316000000    -4.111000000
H     3.202000000     2.192000000    -5.193000000
H     4.187000000     2.861000000    -3.878000000
C     2.022000000     3.016000000    -3.508000000
C     2.055000000     3.712000000    -2.264000000
C     0.888000000     4.168000000    -1.745000000
H     0.813000000     4.575000000    -0.740000000
C    -0.389000000     3.908000000    -2.345000000
O    -1.542000000     4.271000000    -1.672000000
C    -2.303000000     3.253000000    -1.009000000
H    -1.761000000     2.302000000    -0.894000000
C    -2.837000000     3.729000000     0.315000000
C    -4.085000000     3.356000000     0.792000000
H    -4.818000000     2.867000000     0.155000000
C    -1.916000000     4.265000000     1.190000000
H    -0.908000000     4.558000000     0.907000000
C    -2.297000000     4.593000000     2.532000000
O    -1.521000000     5.327000000     3.416000000
C    -3.581000000     4.247000000     2.945000000
H    -3.877000000     4.446000000     3.971000000
C    -4.421000000     3.571000000     2.059000000
O    -5.659000000     3.208000000     2.482000000
C    -6.276000000     2.003000000     2.171000000
C    -5.606000000     0.882000000     2.543000000
H    -4.645000000     0.910000000     3.049000000
C    -7.515000000     1.933000000     1.640000000
H    -8.036000000     2.869000000     1.457000000
C    -8.113000000     0.716000000     1.278000000
H    -9.059000000     0.619000000     0.754000000
C    -7.443000000    -0.401000000     1.702000000
H    -7.788000000    -1.410000000     1.489000000
C    -6.184000000    -0.412000000     2.321000000
O    -5.550000000    -1.555000000     2.666000000
C    -5.028000000    -2.517000000     1.778000000
C    -4.634000000    -3.730000000     2.279000000
H    -4.762000000    -4.087000000     3.298000000
C    -4.130000000    -4.669000000     1.458000000
O    -3.913000000    -5.953000000     1.898000000
C    -2.629000000    -6.192000000     2.273000000
C    -1.746000000    -5.140000000     2.612000000
H    -2.021000000    -4.092000000     2.534000000
C    -2.233000000    -7.481000000     2.337000000
H    -2.972000000    -8.263000000     2.181000000
C    -0.965000000    -7.798000000     2.780000000
H    -0.586000000    -8.816000000     2.813000000
C    -0.049000000    -6.746000000     2.975000000
H     0.970000000    -7.022000000     3.233000000
C    -0.411000000    -5.437000000     2.888000000
O     0.429000000    -4.444000000     3.316000000
C     1.507000000    -4.094000000     2.569000000
C     2.734000000    -3.941000000     3.163000000
H     2.869000000    -4.255000000     4.195000000
C     3.756000000    -3.439000000     2.435000000
O     4.960000000    -3.317000000     3.131000000
C     5.765000000    -2.263000000     2.869000000
C     5.300000000    -0.998000000     3.053000000
H     4.248000000    -0.934000000     3.317000000
C     7.031000000    -2.461000000     2.335000000
H     7.322000000    -3.497000000     2.178000000
C     7.952000000    -1.453000000     2.265000000
H     8.992000000    -1.641000000     2.012000000
C     7.580000000    -0.205000000     2.599000000
H     8.262000000     0.642000000     2.609000000
C     6.247000000     0.046000000     2.931000000
O     6.055000000     1.333000000     3.320000000
C     5.019000000     2.078000000     2.772000000
C     4.674000000     3.279000000     3.401000000
H     5.118000000     3.565000000     4.351000000
C     3.750000000     4.140000000     2.781000000
O     3.269000000     5.235000000     3.483000000
C     2.121000000     5.818000000     3.197000000
C     2.183000000     6.992000000     2.493000000
H     3.140000000     7.482000000     2.334000000
C     0.993000000     7.611000000     2.089000000
H     1.013000000     8.564000000     1.565000000
C    -0.274000000     7.044000000     2.305000000
H    -1.205000000     7.441000000     1.910000000
C    -0.278000000     5.844000000     3.068000000
C     0.896000000     5.271000000     3.518000000
H     0.895000000     4.314000000     4.035000000
C     0.552000000     1.641000000     2.013000000
H     0.783000000     2.652000000     2.341000000
C     0.294000000     1.425000000     0.637000000
H     0.474000000     2.207000000    -0.097000000
C     0.045000000     0.210000000     0.094000000
C    -0.187000000     0.067000000    -1.463000000
H    -0.732000000     0.874000000    -1.957000000
H     0.717000000     0.058000000    -2.075000000
H    -0.682000000    -0.894000000    -1.621000000
C    -0.016000000    -0.844000000     0.958000000
H    -0.319000000    -1.838000000     0.638000000
C     0.313000000    -0.685000000     2.304000000
H     0.411000000    -1.527000000     2.984000000
C     0.627000000     0.533000000     2.884000000
C     0.900000000     0.723000000     4.355000000
O     0.510000000    -0.072000000     5.172000000
O     1.332000000     1.779000000     4.728000000
O     4.013000000    -1.505000000     6.668000000
H     4.658000000    -0.986000000     6.188000000
H     4.471000000    -1.780000000     7.463000000
O     2.437000000    -0.999000000    10.042000000
H     2.093000000    -0.784000000     9.175000000
H     2.990000000    -1.766000000     9.897000000
O    -0.309000000    -5.662000000     6.467000000
H    -0.544000000    -6.173000000     5.693000000
H     0.394000000    -5.084000000     6.169000000
O    -1.058000000     7.138000000     6.351000000
H    -1.023000000     6.202000000     6.550000000
H    -1.393000000     7.540000000     7.153000000
O     3.373000000     5.939000000     6.993000000
H     4.283000000     5.775000000     6.746000000
H     2.970000000     5.071000000     7.010000000
O    -1.430000000    -1.901000000     5.402000000
H    -1.286000000    -1.972000000     6.345000000
H    -0.771000000    -1.274000000     5.105000000
O     1.511000000    -2.958000000     6.322000000
H     1.118000000    -2.367000000     5.679000000
H     2.445000000    -2.748000000     6.300000000
O     4.909000000     2.857000000     7.905000000
H     4.476000000     2.479000000     7.139000000
H     5.363000000     3.629000000     7.567000000
O    -3.730000000    -3.749000000     5.639000000
H    -2.871000000    -3.333000000     5.568000000
H    -4.104000000    -3.390000000     6.444000000
O    -3.329000000     0.300000000     5.811000000
H    -3.128000000    -0.553000000     5.425000000
H    -4.240000000     0.225000000     6.097000000
O     4.231000000     1.723000000    10.316000000
H     3.680000000     1.006000000    10.001000000
H     4.702000000     2.022000000     9.538000000
O    -0.907000000     4.431000000     6.841000000
H    -1.534000000     4.568000000     7.550000000
H    -0.980000000     3.499000000     6.633000000
O     0.524000000     2.067000000     8.806000000
H    -0.042000000     2.133000000     8.037000000
H     1.140000000     1.366000000     8.591000000
O     3.851000000     1.325000000     5.693000000
H     3.997000000     1.540000000     4.771000000
H     2.902000000     1.378000000     5.803000000
O    -0.566000000    -2.919000000     7.925000000
H    -0.866000000    -3.798000000     7.695000000
H     0.363000000    -3.028000000     8.130000000
O    -1.115000000     1.800000000     6.469000000
H    -0.372000000     1.558000000     5.916000000
H    -1.763000000     1.113000000     6.315000000
O     1.705000000    -0.136000000     7.701000000
H     2.374000000    -0.625000000     7.223000000
H     0.999000000    -0.013000000     7.068000000
O    -1.575000000    -0.799000000     9.381000000
H    -1.357000000    -1.731000000     9.420000000
H    -0.866000000    -0.408000000     8.871000000
O     1.720000000     3.640000000     6.474000000
H     0.862000000     4.059000000     6.550000000
H     1.619000000     3.017000000     5.754000000
