218
-1455.06029
C    -3.096000000    -4.128000000     1.562000000
H    -2.370000000    -4.879000000     1.260000000
C    -3.470000000    -3.060000000     0.731000000
C    -4.421000000    -2.158000000     1.288000000
H    -4.759000000    -1.279000000     0.744000000
C    -2.843000000    -2.804000000    -0.623000000
O    -2.107000000    -4.047000000    -0.948000000
H    -2.109000000    -1.990000000    -0.530000000
O    -3.906000000    -2.534000000    -1.466000000
C    -3.806000000    -1.584000000    -2.457000000
C    -4.346000000    -0.318000000    -2.231000000
H    -5.019000000    -0.145000000    -1.396000000
C    -3.844000000     0.798000000    -3.009000000
O    -4.072000000     2.015000000    -2.457000000
C    -2.891000000     0.550000000    -4.005000000
C    -2.300000000     1.672000000    -4.794000000
H    -2.153000000     1.392000000    -5.839000000
C    -0.999000000     2.124000000    -4.183000000
C     0.160000000     1.656000000    -4.721000000
H     0.189000000     0.912000000    -5.512000000
H    -2.968000000     2.536000000    -4.800000000
C    -2.505000000    -0.768000000    -4.305000000
H    -1.618000000    -0.859000000    -4.927000000
C    -2.946000000    -1.813000000    -3.538000000
C    -2.400000000    -3.202000000    -3.812000000
H    -2.203000000    -3.294000000    -4.882000000
H    -3.151000000    -3.951000000    -3.552000000
C    -1.091000000    -3.545000000    -3.078000000
C     0.136000000    -3.474000000    -3.778000000
H     0.069000000    -3.088000000    -4.792000000
C    -1.046000000    -3.961000000    -1.720000000
C     0.127000000    -4.407000000    -1.095000000
H     0.201000000    -4.862000000    -0.110000000
C     1.298000000    -4.322000000    -1.852000000
O     2.396000000    -4.566000000    -1.107000000
C     2.975000000    -3.317000000    -0.593000000
C     3.282000000    -3.458000000     0.921000000
C     4.427000000    -2.829000000     1.415000000
H     5.243000000    -2.523000000     0.766000000
C     2.234000000    -3.723000000     1.797000000
H     1.227000000    -4.004000000     1.500000000
O     4.085000000    -2.894000000    -1.399000000
H     2.208000000    -2.530000000    -0.562000000
C     1.349000000    -3.746000000    -3.120000000
C     2.614000000    -3.438000000    -3.838000000
H     2.482000000    -3.245000000    -4.905000000
H     3.371000000    -4.221000000    -3.755000000
C     3.204000000    -2.073000000    -3.457000000
C     2.731000000    -0.899000000    -4.150000000
H     2.100000000    -0.937000000    -5.034000000
C     3.902000000    -1.856000000    -2.302000000
C     4.404000000    -0.575000000    -1.984000000
H     5.090000000    -0.554000000    -1.141000000
C     3.929000000     0.490000000    -2.667000000
O     4.196000000     1.743000000    -2.102000000
C     3.165000000     2.514000000    -1.459000000
C     3.576000000     3.355000000    -0.286000000
C     4.329000000     2.656000000     0.755000000
H     4.676000000     1.642000000     0.578000000
C     3.146000000     4.678000000    -0.061000000
H     2.609000000     5.276000000    -0.792000000
O     2.520000000     3.385000000    -2.501000000
H     2.357000000     1.808000000    -1.222000000
C     3.103000000     0.339000000    -3.790000000
C     2.607000000     1.428000000    -4.718000000
H     2.527000000     1.047000000    -5.738000000
H     3.378000000     2.200000000    -4.765000000
C     1.381000000     2.119000000    -4.202000000
C     1.379000000     3.004000000    -3.131000000
C     0.224000000     3.562000000    -2.629000000
H     0.175000000     4.324000000    -1.855000000
C    -0.987000000     3.098000000    -3.142000000
O    -2.195000000     3.427000000    -2.500000000
C    -2.939000000     2.510000000    -1.698000000
H    -2.363000000     1.592000000    -1.509000000
C    -3.271000000     3.237000000    -0.390000000
C    -4.463000000     2.940000000     0.362000000
H    -5.211000000     2.206000000     0.076000000
C    -2.257000000     3.978000000     0.260000000
H    -1.310000000     4.171000000    -0.237000000
C    -2.485000000     4.410000000     1.584000000
O    -1.578000000     5.034000000     2.405000000
C    -3.676000000     4.170000000     2.248000000
H    -3.823000000     4.372000000     3.306000000
C    -4.655000000     3.473000000     1.613000000
O    -5.864000000     3.257000000     2.341000000
C    -6.429000000     1.974000000     2.294000000
C    -5.771000000     0.816000000     2.768000000
H    -4.886000000     0.939000000     3.387000000
C    -7.657000000     1.851000000     1.755000000
H    -8.109000000     2.751000000     1.345000000
C    -8.297000000     0.629000000     1.676000000
H    -9.284000000     0.624000000     1.221000000
C    -7.654000000    -0.555000000     2.068000000
H    -8.157000000    -1.518000000     2.024000000
C    -6.421000000    -0.430000000     2.668000000
O    -5.846000000    -1.478000000     3.214000000
C    -4.889000000    -2.342000000     2.627000000
C    -4.405000000    -3.354000000     3.424000000
H    -4.736000000    -3.378000000     4.460000000
C    -3.586000000    -4.341000000     2.894000000
O    -3.025000000    -5.234000000     3.789000000
C    -1.694000000    -5.522000000     3.626000000
C    -0.669000000    -4.604000000     3.835000000
H    -0.936000000    -3.557000000     3.957000000
C    -1.402000000    -6.844000000     3.358000000
H    -2.257000000    -7.515000000     3.335000000
C    -0.074000000    -7.228000000     3.265000000
H     0.142000000    -8.276000000     3.073000000
C     0.916000000    -6.449000000     3.697000000
H     1.962000000    -6.741000000     3.742000000
C     0.613000000    -5.131000000     3.952000000
O     1.618000000    -4.185000000     4.145000000
C     2.499000000    -3.705000000     3.181000000
C     3.621000000    -3.103000000     3.678000000
H     3.826000000    -3.000000000     4.740000000
C     4.591000000    -2.656000000     2.802000000
O     5.740000000    -2.118000000     3.296000000
C     6.275000000    -0.865000000     2.925000000
C     5.473000000     0.323000000     3.057000000
H     4.413000000     0.325000000     3.299000000
C     7.605000000    -0.796000000     2.531000000
H     8.110000000    -1.747000000     2.380000000
C     8.197000000     0.468000000     2.414000000
H     9.259000000     0.529000000     2.188000000
C     7.404000000     1.642000000     2.366000000
H     7.876000000     2.567000000     2.046000000
C     6.053000000     1.571000000     2.762000000
O     5.299000000     2.678000000     2.955000000
C     4.620000000     3.308000000     1.926000000
C     4.137000000     4.599000000     2.137000000
H     4.310000000     5.128000000     3.071000000
C     3.438000000     5.272000000     1.187000000
O     2.838000000     6.509000000     1.399000000
C     1.477000000     6.792000000     1.365000000
C     0.952000000     7.981000000     0.824000000
H     1.626000000     8.714000000     0.388000000
C    -0.396000000     8.298000000     0.975000000
H    -0.825000000     9.258000000     0.697000000
C    -1.246000000     7.297000000     1.502000000
H    -2.298000000     7.533000000     1.639000000
C    -0.772000000     6.112000000     1.976000000
C     0.593000000     5.950000000     1.969000000
H     0.932000000     5.014000000     2.405000000
C     0.929000000     1.527000000     1.599000000
H     1.134000000     2.534000000     1.951000000
C     0.485000000     1.262000000     0.295000000
H     0.545000000     2.064000000    -0.436000000
C     0.087000000    -0.079000000    -0.055000000
C    -0.235000000    -0.479000000    -1.498000000
H     0.404000000     0.134000000    -2.138000000
H     0.067000000    -1.519000000    -1.637000000
H    -1.294000000    -0.329000000    -1.718000000
C     0.149000000    -1.044000000     0.957000000
H    -0.266000000    -2.030000000     0.767000000
C     0.455000000    -0.713000000     2.262000000
H     0.536000000    -1.586000000     2.905000000
C     0.920000000     0.517000000     2.597000000
C     1.358000000     0.844000000     4.002000000
O     1.401000000     0.002000000     4.883000000
O     1.730000000     1.957000000     4.192000000
O    -3.670000000     2.507000000     5.572000000
H    -3.141000000     2.129000000     4.869000000
H    -4.545000000     2.145000000     5.435000000
O     3.269000000     1.116000000     6.570000000
H     2.711000000     1.651000000     7.134000000
H     2.780000000     1.040000000     5.751000000
O    -0.736000000    -2.938000000     7.344000000
H    -1.567000000    -3.089000000     7.796000000
H    -0.509000000    -3.789000000     6.970000000
O     1.172000000    -1.226000000     9.808000000
H     1.981000000    -1.623000000    10.130000000
H     1.269000000    -1.221000000     8.856000000
O    -2.895000000     4.944000000     6.413000000
H    -3.620000000     5.551000000     6.264000000
H    -3.222000000     4.099000000     6.103000000
O     1.018000000     7.038000000     5.736000000
H     0.771000000     6.179000000     5.394000000
H     0.724000000     7.657000000     5.067000000
O     3.899000000     5.052000000     7.106000000
H     4.644000000     4.688000000     6.628000000
H     3.131000000     4.725000000     6.639000000
O    -0.804000000    -0.785000000     5.615000000
H    -0.665000000    -1.573000000     6.140000000
H     0.076000000    -0.509000000     5.359000000
O     2.189000000    -1.538000000     7.351000000
H     1.697000000    -1.889000000     6.609000000
H     2.826000000    -0.943000000     6.955000000
O     0.153000000     1.429000000     7.340000000
H     0.332000000     1.746000000     6.455000000
H    -0.297000000     0.594000000     7.209000000
O     0.037000000     3.874000000     8.435000000
H     0.123000000     2.958000000     8.172000000
H     0.620000000     4.349000000     7.842000000
O     5.550000000     1.816000000     8.256000000
H     4.767000000     2.112000000     7.791000000
H     6.275000000     2.049000000     7.676000000
O     3.786000000    -3.736000000     8.265000000
H     3.530000000    -2.870000000     7.946000000
H     3.539000000    -3.732000000     9.190000000
O    -2.367000000     1.348000000     3.475000000
H    -1.940000000     0.683000000     4.015000000
H    -2.148000000     1.103000000     2.576000000
O    -0.635000000     1.097000000    10.395000000
H    -0.107000000     0.311000000    10.259000000
H    -0.717000000     1.484000000     9.523000000
O     5.101000000    -0.861000000     6.357000000
H     4.699000000    -0.008000000     6.196000000
H     5.282000000    -0.867000000     7.297000000
O    -3.320000000    -0.920000000     6.442000000
H    -3.308000000    -1.660000000     7.049000000
H    -2.400000000    -0.780000000     6.218000000
O    -0.602000000     4.835000000     5.089000000
H    -0.947000000     4.916000000     4.200000000
H    -1.372000000     4.921000000     5.653000000
O     1.737000000     3.987000000     6.029000000
H     0.888000000     4.209000000     5.646000000
H     2.035000000     3.228000000     5.526000000
