218
-1469.95941
C    -2.007000000    -3.892000000     1.920000000
H    -1.225000000    -4.472000000     1.436000000
C    -2.946000000    -3.216000000     1.209000000
C    -4.047000000    -2.708000000     1.878000000
H    -4.804000000    -2.176000000     1.307000000
C    -2.870000000    -3.120000000    -0.291000000
O    -2.383000000    -4.310000000    -0.876000000
H    -2.136000000    -2.339000000    -0.536000000
O    -4.086000000    -2.792000000    -0.956000000
C    -3.983000000    -1.659000000    -1.710000000
C    -4.343000000    -0.393000000    -1.306000000
H    -4.699000000    -0.275000000    -0.286000000
C    -4.178000000     0.741000000    -2.024000000
O    -4.345000000     1.977000000    -1.384000000
C    -3.547000000     0.662000000    -3.282000000
C    -3.090000000     1.863000000    -4.128000000
H    -2.913000000     1.585000000    -5.169000000
C    -1.785000000     2.408000000    -3.646000000
C    -0.634000000     2.151000000    -4.378000000
H    -0.735000000     1.530000000    -5.264000000
H    -3.823000000     2.671000000    -4.189000000
C    -3.224000000    -0.586000000    -3.756000000
H    -2.864000000    -0.595000000    -4.781000000
C    -3.478000000    -1.749000000    -3.017000000
C    -3.037000000    -3.117000000    -3.461000000
H    -3.151000000    -3.133000000    -4.547000000
H    -3.762000000    -3.857000000    -3.114000000
C    -1.639000000    -3.460000000    -3.045000000
C    -0.626000000    -3.148000000    -3.928000000
H    -0.806000000    -2.719000000    -4.911000000
C    -1.400000000    -4.089000000    -1.794000000
C    -0.097000000    -4.393000000    -1.403000000
H     0.129000000    -4.836000000    -0.437000000
C     0.904000000    -4.130000000    -2.331000000
O     2.244000000    -4.316000000    -1.958000000
C     2.893000000    -3.207000000    -1.324000000
C     3.684000000    -3.632000000    -0.078000000
C     4.862000000    -2.942000000     0.151000000
H     5.333000000    -2.233000000    -0.525000000
C     3.139000000    -4.498000000     0.880000000
H     2.157000000    -4.947000000     0.759000000
O     3.701000000    -2.486000000    -2.259000000
H     2.139000000    -2.435000000    -1.110000000
C     0.669000000    -3.392000000    -3.474000000
C     1.819000000    -2.870000000    -4.429000000
H     1.461000000    -2.819000000    -5.459000000
H     2.585000000    -3.647000000    -4.374000000
C     2.347000000    -1.541000000    -3.988000000
C     1.943000000    -0.360000000    -4.599000000
H     1.303000000    -0.442000000    -5.474000000
C     3.248000000    -1.441000000    -2.897000000
C     3.685000000    -0.231000000    -2.354000000
H     4.365000000    -0.126000000    -1.513000000
C     3.158000000     0.920000000    -2.892000000
O     3.451000000     2.112000000    -2.320000000
C     2.556000000     2.856000000    -1.530000000
C     3.271000000     3.451000000    -0.300000000
C     4.194000000     2.732000000     0.453000000
H     4.579000000     1.805000000     0.034000000
C     2.728000000     4.585000000     0.286000000
H     2.046000000     5.290000000    -0.183000000
O     1.901000000     3.815000000    -2.336000000
H     1.729000000     2.200000000    -1.219000000
C     2.369000000     0.885000000    -4.011000000
C     1.844000000     2.176000000    -4.658000000
H     1.626000000     1.908000000    -5.694000000
H     2.641000000     2.920000000    -4.714000000
C     0.586000000     2.750000000    -4.003000000
C     0.612000000     3.568000000    -2.847000000
C    -0.525000000     3.826000000    -2.094000000
H    -0.423000000     4.392000000    -1.171000000
C    -1.773000000     3.396000000    -2.595000000
O    -2.874000000     3.596000000    -1.875000000
C    -3.151000000     2.610000000    -0.892000000
H    -2.372000000     1.840000000    -0.792000000
C    -3.395000000     3.245000000     0.518000000
C    -4.342000000     2.737000000     1.387000000
H    -5.122000000     2.092000000     0.992000000
C    -2.623000000     4.262000000     0.985000000
H    -2.000000000     4.815000000     0.286000000
C    -2.691000000     4.759000000     2.286000000
O    -2.006000000     5.864000000     2.835000000
C    -3.753000000     4.267000000     3.146000000
H    -3.888000000     4.662000000     4.150000000
C    -4.517000000     3.229000000     2.661000000
O    -5.636000000     2.821000000     3.426000000
C    -6.054000000     1.483000000     3.444000000
C    -5.323000000     0.312000000     3.771000000
H    -4.256000000     0.417000000     3.952000000
C    -7.372000000     1.333000000     3.039000000
H    -8.067000000     2.163000000     2.940000000
C    -7.940000000     0.012000000     2.990000000
H    -8.998000000    -0.077000000     2.755000000
C    -7.185000000    -1.108000000     3.196000000
H    -7.644000000    -2.083000000     3.050000000
C    -5.877000000    -0.988000000     3.680000000
O    -5.210000000    -2.112000000     4.009000000
C    -4.167000000    -2.690000000     3.273000000
C    -3.120000000    -3.289000000     4.004000000
H    -3.378000000    -3.396000000     5.055000000
C    -2.060000000    -3.887000000     3.324000000
O    -0.902000000    -4.186000000     4.075000000
C    -0.120000000    -5.212000000     3.739000000
C     1.186000000    -4.902000000     3.494000000
H     1.522000000    -3.870000000     3.540000000
C    -0.644000000    -6.478000000     3.494000000
H    -1.677000000    -6.631000000     3.797000000
C     0.186000000    -7.517000000     3.156000000
H    -0.279000000    -8.476000000     2.943000000
C     1.559000000    -7.246000000     2.964000000
H     2.245000000    -8.074000000     2.807000000
C     2.023000000    -5.924000000     3.056000000
O     3.347000000    -5.651000000     2.944000000
C     3.889000000    -4.815000000     2.039000000
C     5.049000000    -4.086000000     2.281000000
H     5.632000000    -4.226000000     3.187000000
C     5.474000000    -3.139000000     1.311000000
O     6.530000000    -2.306000000     1.694000000
C     6.731000000    -0.986000000     1.450000000
C     6.022000000     0.088000000     2.035000000
H     5.227000000    -0.047000000     2.763000000
C     7.616000000    -0.628000000     0.405000000
H     8.046000000    -1.520000000    -0.044000000
C     7.893000000     0.661000000    -0.002000000
H     8.585000000     0.784000000    -0.832000000
C     7.232000000     1.676000000     0.638000000
H     7.483000000     2.707000000     0.400000000
C     6.346000000     1.383000000     1.646000000
O     5.630000000     2.453000000     2.300000000
C     4.666000000     3.187000000     1.692000000
C     4.210000000     4.364000000     2.216000000
H     4.678000000     4.735000000     3.124000000
C     3.232000000     5.085000000     1.530000000
O     2.735000000     6.256000000     2.090000000
C     1.436000000     6.706000000     1.872000000
C     1.237000000     7.830000000     0.999000000
H     2.083000000     8.223000000     0.441000000
C    -0.067000000     8.284000000     0.781000000
H    -0.397000000     9.014000000     0.046000000
C    -1.137000000     7.540000000     1.355000000
H    -2.139000000     7.872000000     1.093000000
C    -0.889000000     6.495000000     2.256000000
C     0.423000000     6.025000000     2.524000000
H     0.616000000     5.149000000     3.137000000
C     1.130000000     1.419000000     1.722000000
H     1.190000000     2.471000000     1.990000000
C     0.431000000     1.104000000     0.575000000
H    -0.118000000     1.895000000     0.072000000
C     0.477000000    -0.179000000     0.079000000
C    -0.117000000    -0.377000000    -1.323000000
H    -0.291000000    -1.399000000    -1.666000000
H    -1.094000000     0.110000000    -1.346000000
H     0.545000000     0.106000000    -2.045000000
C     1.090000000    -1.224000000     0.753000000
H     1.020000000    -2.259000000     0.428000000
C     1.725000000    -0.881000000     1.979000000
H     2.200000000    -1.720000000     2.481000000
C     1.775000000     0.426000000     2.444000000
C     2.535000000     0.643000000     3.732000000
O     2.866000000    -0.323000000     4.389000000
O     2.554000000     1.756000000     4.261000000
O     0.411000000    -0.799000000     8.523000000
H     1.346000000    -0.601000000     8.567000000
H     0.257000000    -1.026000000     7.606000000
O    -0.740000000     4.258000000     6.708000000
H    -1.136000000     5.019000000     6.284000000
H     0.112000000     4.163000000     6.282000000
O     0.683000000    -1.674000000     5.932000000
H     1.502000000    -1.508000000     5.466000000
H     0.704000000    -2.611000000     6.128000000
O     5.193000000    -1.697000000     5.074000000
H     4.419000000    -1.167000000     4.885000000
H     5.886000000    -1.058000000     5.238000000
O     2.124000000     0.761000000     6.893000000
H     1.660000000     1.586000000     7.037000000
H     2.474000000     0.835000000     6.005000000
O     4.391000000     4.698000000     6.818000000
H     4.147000000     4.784000000     7.740000000
H     3.687000000     5.138000000     6.342000000
O    -0.851000000    -0.217000000     3.659000000
H    -0.164000000    -0.052000000     3.012000000
H    -0.397000000    -0.645000000     4.385000000
O     4.573000000    -4.450000000     5.894000000
H     4.764000000    -3.595000000     5.507000000
H     5.388000000    -4.943000000     5.801000000
O     1.773000000     3.591000000     5.818000000
H     1.886000000     2.870000000     5.198000000
H     2.024000000     4.372000000     5.326000000
O     6.194000000     2.551000000     8.311000000
H     6.767000000     3.311000000     8.423000000
H     6.445000000     2.186000000     7.463000000
O     7.055000000     0.303000000     5.677000000
H     6.369000000     0.958000000     5.552000000
H     7.848000000     0.814000000     5.838000000
O    -2.780000000     0.066000000     2.014000000
H    -2.776000000    -0.891000000     2.010000000
H    -2.119000000     0.306000000     2.663000000
O     1.789000000    -4.428000000     6.566000000
H     2.702000000    -4.260000000     6.333000000
H     1.579000000    -5.254000000     6.131000000
O     1.294000000     4.111000000     8.706000000
H     0.358000000     4.147000000     8.511000000
H     1.719000000     4.177000000     7.851000000
O     7.974000000    -2.168000000     4.355000000
H     7.167000000    -2.424000000     3.909000000
H     7.708000000    -1.464000000     4.946000000
O     3.702000000     0.942000000     9.004000000
H     4.410000000     1.299000000     8.467000000
H     3.022000000     0.702000000     8.375000000
O    -3.015000000    -0.372000000     6.410000000
H    -2.461000000    -0.940000000     5.874000000
H    -2.688000000     0.511000000     6.239000000
O     2.598000000     6.082000000     4.971000000
H     3.320000000     6.378000000     4.416000000
H     1.974000000     6.808000000     4.959000000
O     5.168000000     2.219000000     5.332000000
H     4.893000000     2.920000000     5.923000000
H     4.548000000     2.262000000     4.604000000
