218
-1434.39825
C    -1.973000000    -4.328000000     2.342000000
H    -1.187000000    -4.987000000     1.982000000
C    -2.686000000    -3.653000000     1.341000000
C    -3.593000000    -2.671000000     1.744000000
H    -4.037000000    -2.002000000     1.011000000
C    -2.372000000    -3.785000000    -0.172000000
O    -1.528000000    -4.896000000    -0.512000000
H    -1.764000000    -2.891000000    -0.374000000
O    -3.475000000    -3.714000000    -1.127000000
C    -3.366000000    -2.723000000    -2.043000000
C    -4.030000000    -1.545000000    -1.830000000
H    -4.648000000    -1.440000000    -0.942000000
C    -3.809000000    -0.431000000    -2.638000000
O    -4.230000000     0.826000000    -2.239000000
C    -2.980000000    -0.557000000    -3.681000000
C    -2.638000000     0.606000000    -4.631000000
H    -2.489000000     0.268000000    -5.659000000
C    -1.465000000     1.490000000    -4.193000000
C    -0.232000000     1.255000000    -4.759000000
H    -0.071000000     0.478000000    -5.502000000
H    -3.583000000     1.153000000    -4.653000000
C    -2.357000000    -1.783000000    -3.927000000
H    -1.754000000    -1.967000000    -4.813000000
C    -2.559000000    -2.866000000    -3.145000000
C    -1.788000000    -4.211000000    -3.381000000
H    -1.753000000    -4.369000000    -4.461000000
H    -2.418000000    -5.047000000    -3.072000000
C    -0.482000000    -4.248000000    -2.631000000
C     0.620000000    -3.712000000    -3.315000000
H     0.615000000    -3.362000000    -4.344000000
C    -0.406000000    -4.680000000    -1.302000000
C     0.803000000    -4.646000000    -0.660000000
H     0.958000000    -4.872000000     0.392000000
C     1.930000000    -4.182000000    -1.344000000
O     3.040000000    -3.946000000    -0.613000000
C     3.326000000    -2.599000000    -0.186000000
C     3.724000000    -2.526000000     1.290000000
C     4.599000000    -1.560000000     1.700000000
H     5.030000000    -0.876000000     0.974000000
C     3.100000000    -3.326000000     2.268000000
H     2.385000000    -4.107000000     2.022000000
O     4.341000000    -2.035000000    -1.070000000
H     2.388000000    -2.028000000    -0.250000000
C     1.833000000    -3.652000000    -2.610000000
C     3.063000000    -3.195000000    -3.436000000
H     2.915000000    -3.453000000    -4.487000000
H     4.012000000    -3.679000000    -3.197000000
C     3.316000000    -1.670000000    -3.194000000
C     2.890000000    -0.736000000    -4.158000000
H     2.540000000    -1.089000000    -5.125000000
C     3.812000000    -1.175000000    -2.024000000
C     3.904000000     0.159000000    -1.748000000
H     4.503000000     0.433000000    -0.884000000
C     3.399000000     1.088000000    -2.668000000
O     3.579000000     2.433000000    -2.294000000
C     2.471000000     3.216000000    -1.819000000
C     2.933000000     4.160000000    -0.782000000
C     3.943000000     3.764000000     0.096000000
H     4.558000000     2.888000000    -0.091000000
C     2.129000000     5.231000000    -0.514000000
H     1.303000000     5.480000000    -1.177000000
O     1.720000000     3.755000000    -2.873000000
H     1.830000000     2.525000000    -1.251000000
C     2.890000000     0.620000000    -3.900000000
C     2.216000000     1.644000000    -4.831000000
H     2.093000000     1.161000000    -5.802000000
H     2.769000000     2.578000000    -4.948000000
C     0.880000000     2.029000000    -4.333000000
C     0.647000000     3.073000000    -3.462000000
C    -0.683000000     3.401000000    -3.092000000
H    -0.844000000     4.288000000    -2.485000000
C    -1.756000000     2.551000000    -3.372000000
O    -2.976000000     2.793000000    -2.791000000
C    -3.251000000     1.803000000    -1.743000000
H    -2.315000000     1.285000000    -1.490000000
C    -3.845000000     2.550000000    -0.522000000
C    -5.025000000     2.134000000     0.117000000
H    -5.633000000     1.414000000    -0.425000000
C    -3.098000000     3.541000000     0.100000000
H    -2.110000000     3.786000000    -0.280000000
C    -3.569000000     4.198000000     1.259000000
O    -2.764000000     5.135000000     1.945000000
C    -4.826000000     3.877000000     1.746000000
H    -5.315000000     4.515000000     2.477000000
C    -5.563000000     2.852000000     1.174000000
O    -6.718000000     2.266000000     1.678000000
C    -6.851000000     0.938000000     2.027000000
C    -5.714000000     0.409000000     2.705000000
H    -4.876000000     1.034000000     3.004000000
C    -7.932000000     0.130000000     1.681000000
H    -8.786000000     0.657000000     1.264000000
C    -7.904000000    -1.279000000     2.080000000
H    -8.730000000    -1.915000000     1.773000000
C    -6.793000000    -1.763000000     2.746000000
H    -6.783000000    -2.812000000     3.031000000
C    -5.697000000    -0.948000000     3.043000000
O    -4.616000000    -1.424000000     3.692000000
C    -3.799000000    -2.459000000     3.162000000
C    -3.231000000    -3.362000000     4.125000000
H    -3.610000000    -3.332000000     5.144000000
C    -2.298000000    -4.306000000     3.684000000
O    -1.740000000    -5.256000000     4.567000000
C    -0.452000000    -5.566000000     4.505000000
C     0.508000000    -4.583000000     4.810000000
H     0.228000000    -3.604000000     5.189000000
C    -0.075000000    -6.736000000     3.837000000
H    -0.808000000    -7.491000000     3.567000000
C     1.253000000    -6.997000000     3.586000000
H     1.607000000    -7.916000000     3.126000000
C     2.245000000    -6.029000000     3.936000000
H     3.286000000    -6.311000000     3.806000000
C     1.856000000    -4.810000000     4.478000000
O     2.782000000    -3.852000000     4.646000000
C     3.307000000    -3.060000000     3.611000000
C     4.343000000    -2.181000000     3.980000000
H     4.683000000    -2.061000000     5.005000000
C     4.937000000    -1.333000000     3.045000000
O     5.733000000    -0.292000000     3.397000000
C     6.089000000     0.818000000     2.663000000
C     5.387000000     2.038000000     2.784000000
H     4.541000000     2.127000000     3.461000000
C     7.231000000     0.754000000     1.837000000
H     7.764000000    -0.190000000     1.755000000
C     7.784000000     1.895000000     1.316000000
H     8.723000000     1.877000000     0.770000000
C     7.066000000     3.073000000     1.278000000
H     7.536000000     3.889000000     0.737000000
C     5.859000000     3.125000000     2.048000000
O     5.136000000     4.273000000     2.116000000
C     4.196000000     4.613000000     1.161000000
C     3.404000000     5.723000000     1.448000000
H     3.637000000     6.263000000     2.362000000
C     2.335000000     5.991000000     0.598000000
O     1.535000000     7.104000000     0.792000000
C     0.173000000     7.038000000     0.646000000
C    -0.448000000     7.975000000    -0.132000000
H     0.210000000     8.732000000    -0.551000000
C    -1.841000000     7.895000000    -0.295000000
H    -2.439000000     8.635000000    -0.821000000
C    -2.620000000     6.945000000     0.413000000
H    -3.691000000     6.937000000     0.230000000
C    -1.998000000     6.025000000     1.278000000
C    -0.595000000     6.088000000     1.367000000
H    -0.078000000     5.436000000     2.066000000
C     1.273000000     1.047000000     2.490000000
H     1.689000000     1.982000000     2.856000000
C     0.805000000     0.976000000     1.216000000
H     0.884000000     1.880000000     0.617000000
C     0.252000000    -0.149000000     0.722000000
C    -0.200000000    -0.216000000    -0.643000000
H    -0.924000000    -0.985000000    -0.922000000
H    -0.533000000     0.732000000    -1.073000000
H     0.722000000    -0.495000000    -1.156000000
C     0.030000000    -1.269000000     1.581000000
H    -0.518000000    -2.124000000     1.195000000
C     0.385000000    -1.123000000     2.966000000
H     0.184000000    -1.970000000     3.618000000
C     1.023000000     0.006000000     3.446000000
C     1.506000000     0.171000000     4.863000000
O     1.187000000    -0.574000000     5.756000000
O     2.288000000     1.038000000     5.130000000
O     3.072000000    -1.212000000     7.577000000
H     2.342000000    -1.021000000     6.989000000
H     3.737000000    -0.562000000     7.353000000
O     2.621000000     1.900000000    10.051000000
H     3.264000000     2.406000000     9.555000000
H     1.851000000     1.868000000     9.483000000
O    -2.831000000    -1.478000000     8.647000000
H    -2.099000000    -2.076000000     8.494000000
H    -3.154000000    -1.712000000     9.516000000
O    -2.676000000     1.110000000     4.703000000
H    -2.131000000     0.914000000     3.941000000
H    -2.262000000     0.636000000     5.423000000
O     4.662000000     0.674000000     6.280000000
H     5.408000000     1.194000000     5.983000000
H     3.945000000     0.930000000     5.700000000
O    -2.195000000     3.897000000     5.742000000
H    -2.072000000     3.222000000     5.074000000
H    -1.354000000     3.937000000     6.199000000
O    -1.348000000    -0.883000000     6.148000000
H    -0.428000000    -0.960000000     5.896000000
H    -1.429000000    -1.425000000     6.932000000
O     0.593000000     0.873000000     8.182000000
H     1.100000000     1.643000000     7.926000000
H     0.641000000     0.292000000     7.423000000
O     7.807000000    -1.157000000     5.560000000
H     7.061000000    -0.599000000     5.338000000
H     8.561000000    -0.715000000     5.170000000
O     6.380000000    -0.773000000     7.944000000
H     7.327000000    -0.805000000     7.813000000
H     6.043000000    -0.353000000     7.152000000
O     4.142000000     4.888000000     6.485000000
H     3.728000000     5.693000000     6.175000000
H     5.036000000     4.933000000     6.145000000
O     0.875000000    -1.564000000     9.197000000
H     0.467000000    -0.703000000     9.107000000
H     1.757000000    -1.450000000     8.843000000
O    -0.096000000     4.660000000     7.795000000
H     0.546000000     4.793000000     7.098000000
H     0.304000000     5.058000000     8.568000000
O    -3.370000000     1.297000000     7.482000000
H    -3.577000000     1.401000000     6.553000000
H    -3.230000000     0.357000000     7.592000000
O    -0.956000000    -3.359000000     8.045000000
H    -0.167000000    -2.849000000     8.226000000
H    -0.671000000    -4.271000000     8.103000000
O     6.700000000     2.317000000     6.287000000
H     7.239000000     2.151000000     7.060000000
H     6.958000000     3.192000000     5.997000000
O     5.309000000    -5.244000000     5.344000000
H     5.076000000    -4.316000000     5.303000000
H     6.110000000    -5.267000000     5.867000000
O     2.612000000     2.538000000     7.160000000
H     2.992000000     3.281000000     6.691000000
H     2.625000000     1.822000000     6.524000000
O     3.274000000    -4.244000000     8.216000000
H     4.165000000    -4.588000000     8.158000000
H     3.234000000    -3.565000000     7.542000000
