218
-1458.27955
C    -1.860000000    -4.594000000     2.372000000
H    -1.317000000    -5.413000000     1.907000000
C    -2.306000000    -3.576000000     1.519000000
C    -3.136000000    -2.631000000     2.076000000
H    -3.615000000    -1.918000000     1.411000000
C    -1.969000000    -3.532000000     0.045000000
O    -1.395000000    -4.822000000    -0.385000000
H    -1.196000000    -2.778000000    -0.164000000
O    -3.192000000    -3.263000000    -0.710000000
C    -3.159000000    -2.355000000    -1.740000000
C    -3.952000000    -1.167000000    -1.614000000
H    -4.497000000    -0.963000000    -0.696000000
C    -3.776000000    -0.153000000    -2.584000000
O    -4.298000000     1.081000000    -2.360000000
C    -2.931000000    -0.354000000    -3.662000000
C    -2.751000000     0.666000000    -4.767000000
H    -2.642000000     0.103000000    -5.697000000
C    -1.569000000     1.601000000    -4.434000000
C    -0.310000000     1.145000000    -4.751000000
H    -0.237000000     0.231000000    -5.336000000
H    -3.704000000     1.194000000    -4.834000000
C    -2.369000000    -1.605000000    -3.815000000
H    -1.832000000    -1.807000000    -4.739000000
C    -2.342000000    -2.587000000    -2.808000000
C    -1.657000000    -3.959000000    -3.117000000
H    -1.525000000    -4.088000000    -4.193000000
H    -2.333000000    -4.723000000    -2.729000000
C    -0.336000000    -4.205000000    -2.463000000
C     0.794000000    -3.911000000    -3.174000000
H     0.737000000    -3.488000000    -4.174000000
C    -0.245000000    -4.646000000    -1.184000000
C     1.006000000    -4.656000000    -0.522000000
H     1.070000000    -5.024000000     0.499000000
C     2.184000000    -4.320000000    -1.252000000
O     3.338000000    -4.001000000    -0.555000000
C     3.423000000    -2.653000000     0.031000000
C     3.802000000    -2.663000000     1.474000000
C     4.335000000    -1.534000000     2.027000000
H     4.410000000    -0.608000000     1.464000000
C     3.600000000    -3.791000000     2.294000000
H     3.069000000    -4.649000000     1.889000000
O     4.265000000    -1.807000000    -0.792000000
H     2.412000000    -2.246000000    -0.117000000
C     2.021000000    -3.872000000    -2.560000000
C     3.253000000    -3.255000000    -3.241000000
H     3.392000000    -3.519000000    -4.292000000
H     4.143000000    -3.669000000    -2.763000000
C     3.373000000    -1.729000000    -3.108000000
C     2.901000000    -0.822000000    -4.057000000
H     2.575000000    -1.228000000    -5.011000000
C     3.829000000    -1.139000000    -1.889000000
C     3.806000000     0.191000000    -1.655000000
H     3.990000000     0.536000000    -0.641000000
C     3.395000000     1.043000000    -2.664000000
O     3.439000000     2.348000000    -2.277000000
C     2.155000000     2.944000000    -1.905000000
C     2.367000000     3.912000000    -0.665000000
C     3.357000000     3.660000000     0.356000000
H     3.993000000     2.815000000     0.102000000
C     1.458000000     4.929000000    -0.441000000
H     0.611000000     5.099000000    -1.100000000
O     1.661000000     3.643000000    -3.080000000
H     1.449000000     2.144000000    -1.637000000
C     2.902000000     0.569000000    -3.852000000
C     2.241000000     1.548000000    -4.773000000
H     2.163000000     0.990000000    -5.709000000
H     2.898000000     2.415000000    -4.867000000
C     0.790000000     1.926000000    -4.392000000
C     0.576000000     3.091000000    -3.646000000
C    -0.667000000     3.509000000    -3.262000000
H    -0.803000000     4.163000000    -2.404000000
C    -1.755000000     2.752000000    -3.700000000
O    -2.970000000     2.930000000    -3.103000000
C    -3.398000000     2.125000000    -2.000000000
H    -2.434000000     1.711000000    -1.667000000
C    -3.899000000     2.923000000    -0.772000000
C    -4.650000000     2.320000000     0.295000000
H    -4.850000000     1.252000000     0.329000000
C    -3.568000000     4.231000000    -0.654000000
H    -2.938000000     4.631000000    -1.443000000
C    -4.044000000     5.019000000     0.332000000
O    -3.845000000     6.367000000     0.311000000
C    -4.888000000     4.473000000     1.292000000
H    -5.402000000     5.099000000     2.016000000
C    -5.253000000     3.092000000     1.286000000
O    -6.045000000     2.514000000     2.257000000
C    -6.181000000     1.125000000     2.437000000
C    -5.212000000     0.424000000     3.085000000
H    -4.429000000     0.987000000     3.586000000
C    -7.079000000     0.444000000     1.618000000
H    -7.871000000     0.983000000     1.104000000
C    -7.270000000    -0.908000000     1.731000000
H    -8.081000000    -1.399000000     1.198000000
C    -6.362000000    -1.640000000     2.424000000
H    -6.460000000    -2.723000000     2.413000000
C    -5.303000000    -0.994000000     3.135000000
O    -4.310000000    -1.639000000     3.842000000
C    -3.381000000    -2.619000000     3.413000000
C    -2.758000000    -3.465000000     4.287000000
H    -2.860000000    -3.328000000     5.360000000
C    -2.002000000    -4.570000000     3.742000000
O    -1.453000000    -5.503000000     4.544000000
C    -0.186000000    -5.903000000     4.341000000
C     0.933000000    -5.096000000     4.236000000
H     0.792000000    -4.021000000     4.162000000
C     0.060000000    -7.277000000     4.521000000
H    -0.684000000    -8.063000000     4.622000000
C     1.319000000    -7.781000000     4.710000000
H     1.495000000    -8.815000000     4.996000000
C     2.451000000    -6.952000000     4.582000000
H     3.452000000    -7.317000000     4.798000000
C     2.277000000    -5.601000000     4.310000000
O     3.361000000    -4.705000000     4.518000000
C     3.770000000    -3.659000000     3.668000000
C     4.192000000    -2.499000000     4.198000000
H     4.415000000    -2.398000000     5.257000000
C     4.538000000    -1.432000000     3.357000000
O     4.880000000    -0.177000000     3.903000000
C     5.456000000     0.847000000     3.147000000
C     4.817000000     2.071000000     3.079000000
H     3.871000000     2.243000000     3.586000000
C     6.682000000     0.774000000     2.513000000
H     7.315000000    -0.091000000     2.699000000
C     7.217000000     1.829000000     1.763000000
H     8.191000000     1.718000000     1.294000000
C     6.542000000     3.048000000     1.729000000
H     6.865000000     3.863000000     1.087000000
C     5.326000000     3.172000000     2.450000000
O     4.627000000     4.387000000     2.364000000
C     3.596000000     4.564000000     1.416000000
C     2.773000000     5.680000000     1.511000000
H     3.013000000     6.410000000     2.279000000
C     1.688000000     5.846000000     0.655000000
O     0.898000000     6.937000000     0.764000000
C    -0.285000000     7.105000000     0.004000000
C    -0.250000000     7.706000000    -1.224000000
H     0.696000000     8.087000000    -1.598000000
C    -1.405000000     7.840000000    -1.963000000
H    -1.330000000     8.144000000    -3.004000000
C    -2.615000000     7.512000000    -1.447000000
H    -3.490000000     7.700000000    -2.064000000
C    -2.686000000     6.887000000    -0.192000000
C    -1.492000000     6.736000000     0.540000000
H    -1.460000000     6.353000000     1.557000000
C     1.016000000     1.471000000     2.717000000
H     1.213000000     2.503000000     2.994000000
C     0.735000000     1.164000000     1.404000000
H     0.525000000     2.019000000     0.767000000
C     0.584000000    -0.151000000     0.950000000
C     0.397000000    -0.382000000    -0.483000000
H     1.165000000     0.004000000    -1.155000000
H     0.495000000    -1.426000000    -0.789000000
H    -0.542000000     0.002000000    -0.888000000
C     0.717000000    -1.264000000     1.824000000
H     0.716000000    -2.315000000     1.547000000
C     0.987000000    -0.968000000     3.199000000
H     1.146000000    -1.797000000     3.884000000
C     1.084000000     0.394000000     3.637000000
C     1.568000000     0.586000000     5.022000000
O     1.367000000    -0.323000000     5.868000000
O     2.050000000     1.624000000     5.392000000
O     3.310000000    -1.197000000     7.398000000
H     2.526000000    -0.869000000     6.957000000
H     4.015000000    -0.627000000     7.090000000
O    -1.280000000    -3.928000000     8.245000000
H    -0.818000000    -3.985000000     9.081000000
H    -0.590000000    -3.779000000     7.599000000
O    -2.502000000    -1.434000000     8.223000000
H    -2.222000000    -2.343000000     8.333000000
H    -3.032000000    -1.251000000     8.999000000
O    -1.004000000     0.297000000     6.520000000
H    -1.387000000    -0.263000000     7.195000000
H    -0.154000000    -0.100000000     6.333000000
O     3.986000000     2.738000000     6.934000000
H     4.392000000     3.408000000     6.384000000
H     3.340000000     2.320000000     6.365000000
O    -0.951000000     6.484000000     6.183000000
H    -1.291000000     5.884000000     6.847000000
H    -1.147000000     6.056000000     5.350000000
O    -1.775000000     2.159000000     4.642000000
H    -1.691000000     1.534000000     3.922000000
H    -1.514000000     1.665000000     5.419000000
O     0.754000000    -2.797000000     6.738000000
H     1.121000000    -1.933000000     6.551000000
H     1.281000000    -3.399000000     6.213000000
O     0.231000000     3.290000000     7.289000000
H     0.347000000     4.082000000     6.765000000
H     0.837000000     2.657000000     6.904000000
O    -2.510000000     2.616000000     7.987000000
H    -1.620000000     2.901000000     7.780000000
H    -2.563000000     1.726000000     7.640000000
O     5.613000000     0.558000000     6.758000000
H     5.431000000     0.466000000     5.823000000
H     5.127000000     1.339000000     7.022000000
O     5.351000000     4.456000000     5.465000000
H     4.829000000     5.209000000     5.186000000
H     6.254000000     4.707000000     5.275000000
O     3.823000000     3.166000000     9.740000000
H     3.620000000     2.783000000     8.886000000
H     4.219000000     2.450000000    10.236000000
O     0.175000000     2.877000000     9.844000000
H     0.125000000     3.196000000     8.943000000
H     0.915000000     3.350000000    10.224000000
O    -1.376000000     4.764000000     3.954000000
H    -0.420000000     4.712000000     3.930000000
H    -1.662000000     3.859000000     4.075000000
O    -4.386000000     0.179000000     6.647000000
H    -4.035000000    -0.069000000     5.791000000
H    -3.817000000    -0.264000000     7.277000000
O     1.387000000     4.293000000     4.704000000
H     2.181000000     4.827000000     4.731000000
H     1.675000000     3.422000000     4.978000000
O     6.756000000    -1.743000000     7.550000000
H     7.257000000    -1.870000000     6.744000000
H     6.253000000    -0.944000000     7.395000000
O     4.491000000    -3.913000000     8.051000000
H     3.971000000    -3.918000000     8.854000000
H     4.557000000    -2.988000000     7.814000000
