218
-1455.71638
C    -2.870000000    -3.662000000     2.091000000
H    -2.475000000    -4.528000000     1.566000000
C    -3.481000000    -2.579000000     1.366000000
C    -4.148000000    -1.540000000     2.061000000
H    -4.565000000    -0.667000000     1.564000000
C    -3.280000000    -2.476000000    -0.097000000
O    -3.205000000    -3.707000000    -0.735000000
H    -2.360000000    -1.909000000    -0.303000000
O    -4.469000000    -1.752000000    -0.623000000
C    -4.193000000    -0.746000000    -1.493000000
C    -4.291000000     0.564000000    -1.092000000
H    -4.562000000     0.860000000    -0.082000000
C    -3.969000000     1.598000000    -1.958000000
O    -3.883000000     2.839000000    -1.383000000
C    -3.597000000     1.340000000    -3.326000000
C    -2.908000000     2.377000000    -4.196000000
H    -2.930000000     2.089000000    -5.249000000
C    -1.410000000     2.678000000    -3.782000000
C    -0.344000000     1.974000000    -4.403000000
H    -0.628000000     1.280000000    -5.190000000
H    -3.464000000     3.297000000    -4.005000000
C    -3.531000000     0.018000000    -3.731000000
H    -3.094000000    -0.214000000    -4.699000000
C    -3.790000000    -1.067000000    -2.822000000
C    -3.701000000    -2.564000000    -3.236000000
H    -3.912000000    -2.786000000    -4.284000000
H    -4.556000000    -3.016000000    -2.731000000
C    -2.309000000    -3.142000000    -2.872000000
C    -1.113000000    -3.040000000    -3.664000000
H    -1.152000000    -2.603000000    -4.658000000
C    -2.173000000    -3.800000000    -1.612000000
C    -0.915000000    -4.246000000    -1.191000000
H    -0.763000000    -4.624000000    -0.183000000
C     0.171000000    -4.235000000    -2.038000000
O     1.398000000    -4.701000000    -1.727000000
C     2.333000000    -3.690000000    -1.267000000
C     3.057000000    -4.168000000     0.032000000
C     4.390000000    -3.859000000     0.251000000
H     4.963000000    -3.352000000    -0.521000000
C     2.287000000    -4.765000000     1.023000000
H     1.233000000    -4.977000000     0.866000000
O     3.312000000    -3.408000000    -2.298000000
H     1.831000000    -2.739000000    -1.035000000
C     0.096000000    -3.622000000    -3.263000000
C     1.254000000    -3.449000000    -4.218000000
H     0.863000000    -3.496000000    -5.236000000
H     1.903000000    -4.310000000    -4.049000000
C     2.055000000    -2.160000000    -3.952000000
C     1.751000000    -0.958000000    -4.588000000
H     0.951000000    -0.945000000    -5.324000000
C     3.117000000    -2.232000000    -3.036000000
C     3.850000000    -1.136000000    -2.680000000
H     4.611000000    -1.276000000    -1.917000000
C     3.392000000     0.089000000    -3.146000000
O     3.918000000     1.232000000    -2.577000000
C     3.073000000     2.064000000    -1.794000000
C     3.662000000     2.598000000    -0.421000000
C     4.512000000     1.770000000     0.274000000
H     4.839000000     0.796000000    -0.083000000
C     3.231000000     3.794000000     0.137000000
H     2.671000000     4.493000000    -0.479000000
O     2.559000000     3.164000000    -2.608000000
H     2.340000000     1.317000000    -1.459000000
C     2.450000000     0.220000000    -4.161000000
C     2.151000000     1.538000000    -4.882000000
H     1.935000000     1.314000000    -5.928000000
H     3.072000000     2.124000000    -4.869000000
C     1.021000000     2.270000000    -4.129000000
C     1.315000000     3.123000000    -3.131000000
C     0.286000000     3.814000000    -2.456000000
H     0.448000000     4.447000000    -1.588000000
C    -1.033000000     3.593000000    -2.817000000
O    -1.958000000     4.111000000    -1.988000000
C    -2.566000000     3.222000000    -0.944000000
H    -1.955000000     2.329000000    -0.741000000
C    -2.889000000     4.035000000     0.370000000
C    -4.037000000     3.758000000     1.206000000
H    -4.827000000     3.132000000     0.801000000
C    -1.906000000     4.903000000     0.907000000
H    -1.006000000     5.134000000     0.343000000
C    -2.161000000     5.589000000     2.113000000
O    -1.197000000     6.358000000     2.741000000
C    -3.353000000     5.412000000     2.811000000
H    -3.533000000     5.901000000     3.765000000
C    -4.358000000     4.556000000     2.292000000
O    -5.379000000     4.259000000     3.103000000
C    -5.822000000     2.967000000     3.226000000
C    -4.996000000     1.895000000     3.689000000
H    -4.015000000     2.150000000     4.082000000
C    -6.984000000     2.678000000     2.481000000
H    -7.630000000     3.366000000     1.941000000
C    -7.365000000     1.340000000     2.351000000
H    -8.269000000     1.154000000     1.775000000
C    -6.549000000     0.296000000     2.862000000
H    -6.898000000    -0.731000000     2.803000000
C    -5.399000000     0.567000000     3.505000000
O    -4.696000000    -0.466000000     4.132000000
C    -4.094000000    -1.526000000     3.449000000
C    -3.558000000    -2.638000000     4.146000000
H    -3.426000000    -2.561000000     5.222000000
C    -3.000000000    -3.702000000     3.443000000
O    -2.487000000    -4.736000000     4.224000000
C    -1.433000000    -5.533000000     3.813000000
C    -0.130000000    -5.021000000     3.818000000
H     0.042000000    -4.020000000     4.203000000
C    -1.659000000    -6.811000000     3.367000000
H    -2.685000000    -7.163000000     3.434000000
C    -0.668000000    -7.659000000     2.916000000
H    -0.742000000    -8.682000000     2.557000000
C     0.582000000    -7.052000000     2.821000000
H     1.465000000    -7.505000000     2.378000000
C     0.829000000    -5.763000000     3.286000000
O     2.158000000    -5.446000000     3.386000000
C     2.875000000    -4.913000000     2.284000000
C     4.167000000    -4.484000000     2.596000000
H     4.612000000    -4.624000000     3.578000000
C     4.954000000    -4.012000000     1.485000000
O     6.229000000    -3.543000000     1.789000000
C     6.630000000    -2.224000000     1.584000000
C     5.971000000    -1.103000000     2.069000000
H     5.079000000    -1.261000000     2.671000000
C     7.831000000    -2.022000000     0.868000000
H     8.387000000    -2.902000000     0.555000000
C     8.365000000    -0.678000000     0.760000000
H     9.328000000    -0.559000000     0.271000000
C     7.628000000     0.404000000     1.216000000
H     8.055000000     1.400000000     1.124000000
C     6.431000000     0.181000000     1.847000000
O     5.783000000     1.297000000     2.344000000
C     4.869000000     2.043000000     1.544000000
C     4.562000000     3.302000000     2.071000000
H     4.864000000     3.654000000     3.054000000
C     3.623000000     4.113000000     1.408000000
O     3.360000000     5.359000000     1.930000000
C     2.231000000     6.104000000     1.627000000
C     2.260000000     7.090000000     0.698000000
H     3.209000000     7.278000000     0.202000000
C     1.270000000     8.101000000     0.493000000
H     1.572000000     8.927000000    -0.146000000
C     0.086000000     7.922000000     1.273000000
H    -0.659000000     8.710000000     1.212000000
C    -0.045000000     6.802000000     2.109000000
C     1.037000000     5.904000000     2.346000000
H     0.815000000     5.100000000     3.044000000
C    -0.888000000     1.127000000     2.343000000
H    -1.383000000     2.059000000     2.602000000
C    -0.464000000     0.991000000     1.052000000
H    -0.461000000     1.909000000     0.470000000
C    -0.160000000    -0.238000000     0.608000000
C     0.227000000    -0.490000000    -0.862000000
H     0.032000000    -1.536000000    -1.105000000
H    -0.253000000     0.224000000    -1.535000000
H     1.301000000    -0.305000000    -0.931000000
C    -0.382000000    -1.377000000     1.465000000
H    -0.406000000    -2.409000000     1.125000000
C    -0.752000000    -1.185000000     2.822000000
H    -0.931000000    -2.044000000     3.464000000
C    -1.019000000     0.113000000     3.278000000
C    -1.223000000     0.351000000     4.734000000
O    -1.177000000    -0.523000000     5.540000000
O    -1.424000000     1.480000000     5.136000000
O     2.854000000     1.489000000     4.006000000
H     2.563000000     1.648000000     3.108000000
H     2.537000000     0.608000000     4.207000000
O    -0.854000000     3.755000000     8.539000000
H    -0.143000000     4.151000000     9.044000000
H    -1.248000000     4.488000000     8.066000000
O    -0.262000000    -1.182000000     8.145000000
H    -0.256000000    -2.105000000     8.399000000
H    -0.704000000    -1.170000000     7.297000000
O    -4.557000000    -0.481000000     9.911000000
H    -4.604000000    -0.454000000    10.866000000
H    -3.638000000    -0.305000000     9.711000000
O    -3.115000000     1.617000000     7.297000000
H    -2.447000000     1.974000000     7.882000000
H    -2.695000000     1.598000000     6.437000000
O    -1.765000000     3.991000000     5.418000000
H    -2.239000000     4.222000000     4.619000000
H    -1.540000000     3.068000000     5.304000000
O     1.524000000    -0.875000000     5.211000000
H     1.824000000    -1.686000000     5.621000000
H     0.569000000    -0.944000000     5.217000000
O    -3.712000000    -3.851000000     7.979000000
H    -4.410000000    -3.856000000     8.634000000
H    -3.536000000    -2.923000000     7.824000000
O     3.241000000     1.349000000     7.685000000
H     2.740000000     1.713000000     6.956000000
H     2.960000000     0.435000000     7.736000000
O     1.072000000     2.638000000     6.457000000
H     0.466000000     2.265000000     5.816000000
H     0.508000000     2.958000000     7.161000000
O    -5.845000000    -1.650000000     6.823000000
H    -5.152000000    -1.186000000     6.354000000
H    -6.058000000    -1.079000000     7.561000000
O    -0.580000000    -4.363000000     7.637000000
H    -0.735000000    -5.166000000     7.140000000
H    -1.439000000    -3.945000000     7.690000000
O    -1.782000000     5.974000000     7.276000000
H    -1.746000000     5.440000000     6.482000000
H    -2.637000000     6.402000000     7.238000000
O    -2.091000000     0.189000000     9.721000000
H    -1.735000000     0.499000000    10.553000000
H    -1.324000000    -0.099000000     9.225000000
O     2.856000000     4.115000000     4.974000000
H     2.892000000     3.486000000     4.254000000
H     2.228000000     3.738000000     5.591000000
O    -4.481000000     3.101000000     9.598000000
H    -4.071000000     2.440000000     9.040000000
H    -4.810000000     3.760000000     8.987000000
O     2.500000000    -1.234000000     8.559000000
H     1.641000000    -1.585000000     8.325000000
H     3.037000000    -2.008000000     8.729000000
O    -2.960000000    -1.262000000     7.418000000
H    -2.365000000    -1.141000000     6.678000000
H    -2.923000000    -0.432000000     7.893000000
O     1.925000000    -3.521000000     6.384000000
H     1.334000000    -4.044000000     6.926000000
H     2.802000000    -3.765000000     6.681000000
