218
-1445.82241
C    -2.738000000    -2.616000000     3.317000000
H    -1.932000000    -3.307000000     3.084000000
C    -3.716000000    -2.310000000     2.311000000
C    -4.753000000    -1.390000000     2.590000000
H    -5.526000000    -1.185000000     1.854000000
C    -3.412000000    -2.688000000     0.822000000
O    -3.097000000    -4.043000000     0.629000000
H    -2.533000000    -2.103000000     0.513000000
O    -4.533000000    -2.264000000    -0.032000000
C    -4.227000000    -1.674000000    -1.240000000
C    -4.353000000    -0.287000000    -1.249000000
H    -4.503000000     0.110000000    -0.248000000
C    -3.890000000     0.498000000    -2.330000000
O    -3.860000000     1.868000000    -2.088000000
C    -3.462000000    -0.228000000    -3.490000000
C    -3.070000000     0.634000000    -4.734000000
H    -3.103000000     0.063000000    -5.664000000
C    -1.589000000     1.136000000    -4.672000000
C    -0.506000000     0.383000000    -5.205000000
H    -0.778000000    -0.474000000    -5.815000000
H    -3.755000000     1.465000000    -4.912000000
C    -3.346000000    -1.649000000    -3.487000000
H    -3.051000000    -2.149000000    -4.407000000
C    -3.707000000    -2.294000000    -2.335000000
C    -3.408000000    -3.821000000    -2.254000000
H    -3.585000000    -4.291000000    -3.224000000
H    -4.257000000    -4.248000000    -1.718000000
C    -2.127000000    -4.174000000    -1.602000000
C    -0.970000000    -4.390000000    -2.357000000
H    -1.016000000    -4.322000000    -3.441000000
C    -2.037000000    -4.288000000    -0.249000000
C    -0.832000000    -4.637000000     0.347000000
H    -0.726000000    -4.645000000     1.429000000
C     0.335000000    -4.809000000    -0.392000000
O     1.526000000    -4.946000000     0.233000000
C     2.418000000    -3.787000000     0.364000000
C     3.082000000    -3.614000000     1.761000000
C     4.147000000    -2.698000000     1.809000000
H     4.473000000    -2.169000000     0.917000000
C     2.526000000    -4.110000000     2.984000000
H     1.722000000    -4.841000000     2.986000000
O     3.313000000    -3.605000000    -0.714000000
H     1.711000000    -2.946000000     0.310000000
C     0.273000000    -4.607000000    -1.746000000
C     1.502000000    -4.732000000    -2.725000000
H     1.205000000    -5.086000000    -3.715000000
H     2.296000000    -5.378000000    -2.343000000
C     2.119000000    -3.390000000    -2.882000000
C     1.811000000    -2.558000000    -3.977000000
H     1.065000000    -2.787000000    -4.734000000
C     2.924000000    -2.906000000    -1.840000000
C     3.477000000    -1.647000000    -1.984000000
H     4.103000000    -1.333000000    -1.153000000
C     3.167000000    -0.920000000    -3.096000000
O     3.679000000     0.341000000    -3.052000000
C     2.957000000     1.556000000    -2.689000000
C     3.724000000     2.603000000    -1.866000000
C     4.830000000     2.135000000    -1.183000000
H     5.164000000     1.129000000    -1.423000000
C     3.299000000     3.926000000    -1.784000000
H     2.388000000     4.328000000    -2.220000000
O     2.455000000     2.122000000    -3.946000000
H     2.079000000     1.240000000    -2.107000000
C     2.320000000    -1.304000000    -4.069000000
C     1.866000000    -0.414000000    -5.262000000
H     1.478000000    -1.034000000    -6.073000000
H     2.752000000     0.070000000    -5.678000000
C     0.826000000     0.642000000    -4.917000000
C     1.173000000     1.724000000    -4.187000000
C     0.154000000     2.616000000    -3.842000000
H     0.414000000     3.539000000    -3.330000000
C    -1.179000000     2.232000000    -3.872000000
O    -2.087000000     3.012000000    -3.209000000
C    -2.504000000     2.482000000    -1.915000000
H    -1.879000000     1.637000000    -1.593000000
C    -2.619000000     3.542000000    -0.779000000
C    -3.781000000     3.687000000    -0.044000000
H    -4.647000000     3.094000000    -0.329000000
C    -1.486000000     4.328000000    -0.472000000
H    -0.664000000     4.262000000    -1.180000000
C    -1.659000000     5.219000000     0.579000000
O    -0.632000000     6.035000000     1.007000000
C    -2.759000000     5.255000000     1.345000000
H    -2.790000000     5.892000000     2.225000000
C    -3.870000000     4.531000000     1.006000000
O    -4.948000000     4.601000000     1.759000000
C    -5.702000000     3.524000000     2.172000000
C    -5.134000000     2.590000000     2.919000000
H    -4.075000000     2.701000000     3.134000000
C    -7.088000000     3.537000000     1.893000000
H    -7.473000000     4.430000000     1.406000000
C    -7.859000000     2.485000000     2.279000000
H    -8.917000000     2.536000000     2.034000000
C    -7.262000000     1.412000000     2.893000000
H    -7.802000000     0.472000000     2.980000000
C    -5.922000000     1.427000000     3.312000000
O    -5.542000000     0.354000000     4.103000000
C    -4.668000000    -0.681000000     3.766000000
C    -3.825000000    -1.064000000     4.789000000
H    -3.797000000    -0.525000000     5.732000000
C    -2.884000000    -2.071000000     4.584000000
O    -2.002000000    -2.386000000     5.599000000
C    -1.139000000    -3.524000000     5.604000000
C     0.242000000    -3.352000000     5.441000000
H     0.599000000    -2.337000000     5.281000000
C    -1.638000000    -4.881000000     5.719000000
H    -2.679000000    -5.096000000     5.947000000
C    -0.748000000    -5.943000000     5.579000000
H    -1.139000000    -6.951000000     5.468000000
C     0.598000000    -5.734000000     5.418000000
H     1.262000000    -6.590000000     5.326000000
C     1.122000000    -4.419000000     5.447000000
O     2.515000000    -4.196000000     5.337000000
C     3.086000000    -3.737000000     4.172000000
C     4.152000000    -2.813000000     4.243000000
H     4.521000000    -2.472000000     5.207000000
C     4.682000000    -2.348000000     3.019000000
O     5.586000000    -1.300000000     3.092000000
C     6.205000000    -0.648000000     2.016000000
C     6.011000000     0.704000000     1.736000000
H     5.296000000     1.264000000     2.333000000
C     7.117000000    -1.390000000     1.283000000
H     7.230000000    -2.463000000     1.418000000
C     7.768000000    -0.834000000     0.196000000
H     8.470000000    -1.440000000    -0.371000000
C     7.655000000     0.514000000    -0.067000000
H     8.068000000     1.076000000    -0.901000000
C     6.812000000     1.238000000     0.766000000
O     6.562000000     2.545000000     0.485000000
C     5.538000000     2.961000000    -0.375000000
C     5.181000000     4.268000000    -0.333000000
H     5.790000000     4.917000000     0.291000000
C     4.104000000     4.759000000    -0.976000000
O     3.812000000     6.121000000    -0.979000000
C     2.517000000     6.552000000    -0.962000000
C     2.230000000     7.783000000    -1.597000000
H     2.957000000     8.275000000    -2.238000000
C     1.048000000     8.371000000    -1.252000000
H     0.819000000     9.350000000    -1.666000000
C     0.122000000     7.860000000    -0.352000000
H    -0.854000000     8.333000000    -0.425000000
C     0.319000000     6.636000000     0.195000000
C     1.605000000     6.115000000     0.022000000
H     1.743000000     5.271000000     0.693000000
C     0.112000000     2.275000000     1.562000000
H     0.354000000     3.334000000     1.602000000
C    -0.090000000     1.693000000     0.307000000
H     0.190000000     2.274000000    -0.568000000
C    -0.418000000     0.348000000     0.241000000
C    -0.314000000    -0.450000000    -1.125000000
H    -1.214000000    -1.040000000    -1.309000000
H    -0.088000000     0.265000000    -1.918000000
H     0.441000000    -1.228000000    -0.994000000
C    -0.591000000    -0.421000000     1.416000000
H    -0.660000000    -1.505000000     1.367000000
C    -0.377000000     0.247000000     2.628000000
H    -0.531000000    -0.277000000     3.568000000
C    -0.019000000     1.571000000     2.760000000
C     0.016000000     2.290000000     4.054000000
O    -0.678000000     1.859000000     4.965000000
O     0.564000000     3.393000000     4.227000000
O     0.081000000     3.228000000     7.664000000
H    -0.196000000     2.923000000     6.800000000
H     0.996000000     3.482000000     7.547000000
O     2.699000000     4.872000000     3.431000000
H     2.893000000     5.215000000     4.304000000
H     1.855000000     4.432000000     3.529000000
O     5.508000000     5.517000000     2.815000000
H     4.693000000     5.073000000     3.052000000
H     5.939000000     5.690000000     3.652000000
O     2.906000000     2.195000000     8.886000000
H     1.983000000     1.948000000     8.941000000
H     3.089000000     2.234000000     7.948000000
O     2.866000000     2.779000000     6.057000000
H     2.223000000     3.087000000     5.419000000
H     3.125000000     1.915000000     5.738000000
O    -0.455000000     0.807000000     8.651000000
H    -0.205000000     0.291000000     7.885000000
H    -0.452000000     1.713000000     8.341000000
O     1.396000000     5.825000000     8.547000000
H     0.440000000     5.792000000     8.590000000
H     1.582000000     6.505000000     7.899000000
O     3.504000000     0.316000000     5.021000000
H     3.623000000     0.127000000     4.090000000
H     4.300000000    -0.016000000     5.437000000
O     4.392000000     5.185000000     5.977000000
H     4.084000000     4.294000000     5.809000000
H     5.343000000     5.133000000     5.880000000
O    -1.221000000     6.692000000     7.986000000
H    -0.614000000     7.432000000     8.004000000
H    -0.992000000     6.214000000     7.189000000
O    -5.040000000     4.581000000     5.369000000
H    -4.806000000     5.215000000     6.047000000
H    -4.215000000     4.149000000     5.149000000
O    -1.110000000     8.524000000     2.727000000
H    -2.017000000     8.542000000     2.421000000
H    -0.898000000     7.593000000     2.795000000
O    -2.736000000     3.006000000     5.795000000
H    -2.996000000     2.334000000     6.425000000
H    -2.020000000     2.607000000     5.301000000
O    -0.925000000     6.015000000     5.506000000
H    -1.599000000     5.337000000     5.467000000
H    -0.284000000     5.752000000     4.845000000
O    -6.141000000     2.538000000     6.597000000
H    -5.647000000     3.126000000     6.025000000
H    -5.536000000     2.333000000     7.310000000
O    -3.341000000     1.053000000     7.857000000
H    -3.743000000     0.214000000     8.084000000
H    -2.478000000     1.023000000     8.271000000
O     2.567000000     0.049000000     0.578000000
H     3.229000000     0.740000000     0.603000000
H     1.764000000     0.476000000     0.876000000
O     3.497000000     2.664000000     2.164000000
H     3.305000000     3.380000000     2.769000000
H     3.546000000     3.084000000     1.305000000
O     0.679000000     0.133000000     6.245000000
H     1.521000000     0.139000000     5.790000000
H     0.144000000     0.767000000     5.768000000
