218
-1460.93292
C    -2.789000000    -0.526000000     4.656000000
H    -2.598000000    -1.582000000     4.487000000
C    -3.282000000     0.311000000     3.635000000
C    -3.417000000     1.654000000     3.943000000
H    -3.756000000     2.295000000     3.133000000
C    -3.574000000    -0.156000000     2.141000000
O    -4.097000000    -1.478000000     2.154000000
H    -2.669000000    -0.040000000     1.526000000
O    -4.614000000     0.565000000     1.496000000
C    -4.460000000     0.870000000     0.185000000
C    -3.988000000     2.162000000    -0.096000000
H    -3.879000000     2.937000000     0.658000000
C    -3.753000000     2.447000000    -1.444000000
O    -2.986000000     3.558000000    -1.631000000
C    -3.951000000     1.496000000    -2.463000000
C    -3.618000000     1.813000000    -3.923000000
H    -4.327000000     1.496000000    -4.691000000
C    -2.199000000     1.366000000    -4.131000000
C    -1.972000000     0.015000000    -4.599000000
H    -2.887000000    -0.515000000    -4.852000000
H    -3.616000000     2.905000000    -3.954000000
C    -4.488000000     0.232000000    -2.158000000
H    -4.541000000    -0.481000000    -2.976000000
C    -4.695000000    -0.077000000    -0.815000000
C    -5.132000000    -1.445000000    -0.523000000
H    -5.627000000    -1.873000000    -1.398000000
H    -5.903000000    -1.500000000     0.248000000
C    -4.077000000    -2.426000000    -0.077000000
C    -3.572000000    -3.361000000    -0.995000000
H    -3.962000000    -3.253000000    -2.004000000
C    -3.596000000    -2.406000000     1.248000000
C    -2.554000000    -3.230000000     1.605000000
H    -2.071000000    -3.192000000     2.578000000
C    -1.952000000    -4.038000000     0.639000000
O    -0.767000000    -4.683000000     1.025000000
C     0.466000000    -4.104000000     0.531000000
C     1.426000000    -4.040000000     1.756000000
C     2.743000000    -3.709000000     1.592000000
H     3.073000000    -3.514000000     0.574000000
C     0.987000000    -4.160000000     3.074000000
H    -0.052000000    -4.353000000     3.328000000
O     0.971000000    -4.859000000    -0.606000000
H     0.313000000    -3.077000000     0.170000000
C    -2.475000000    -4.123000000    -0.649000000
C    -1.789000000    -5.075000000    -1.635000000
H    -2.553000000    -5.296000000    -2.384000000
H    -1.541000000    -6.036000000    -1.179000000
C    -0.651000000    -4.273000000    -2.284000000
C    -1.009000000    -3.433000000    -3.341000000
H    -2.081000000    -3.325000000    -3.487000000
C     0.681000000    -4.297000000    -1.806000000
C     1.666000000    -3.670000000    -2.481000000
H     2.686000000    -3.587000000    -2.114000000
C     1.345000000    -2.891000000    -3.624000000
O     2.324000000    -2.064000000    -3.941000000
C     2.244000000    -0.695000000    -3.644000000
C     3.568000000    -0.141000000    -3.128000000
C     4.553000000    -0.927000000    -2.512000000
H     4.372000000    -1.991000000    -2.383000000
C     3.909000000     1.225000000    -3.313000000
H     3.335000000     1.743000000    -4.077000000
O     1.721000000    -0.002000000    -4.752000000
H     1.509000000    -0.501000000    -2.849000000
C    -0.018000000    -2.804000000    -4.085000000
C    -0.455000000    -1.918000000    -5.261000000
H    -1.446000000    -2.272000000    -5.556000000
H     0.173000000    -2.074000000    -6.141000000
C    -0.701000000    -0.506000000    -4.778000000
C     0.426000000     0.430000000    -4.660000000
C     0.227000000     1.646000000    -4.000000000
H     1.040000000     2.329000000    -3.766000000
C    -1.061000000     2.091000000    -3.844000000
O    -1.262000000     3.286000000    -3.295000000
C    -1.554000000     3.326000000    -1.877000000
H    -1.275000000     2.307000000    -1.569000000
C    -0.649000000     4.359000000    -1.136000000
C    -0.830000000     4.547000000     0.218000000
H    -1.592000000     3.996000000     0.763000000
C     0.381000000     5.021000000    -1.802000000
H     0.424000000     4.891000000    -2.881000000
C     1.232000000     5.887000000    -1.071000000
O     2.162000000     6.593000000    -1.798000000
C     1.014000000     6.059000000     0.304000000
H     1.730000000     6.654000000     0.864000000
C    -0.007000000     5.384000000     0.943000000
O    -0.096000000     5.482000000     2.356000000
C    -1.307000000     5.502000000     2.977000000
C    -1.538000000     4.534000000     3.913000000
H    -0.684000000     3.958000000     4.259000000
C    -2.260000000     6.445000000     2.582000000
H    -2.003000000     7.221000000     1.865000000
C    -3.559000000     6.395000000     3.139000000
H    -4.327000000     7.086000000     2.802000000
C    -3.766000000     5.419000000     4.147000000
H    -4.735000000     5.438000000     4.638000000
C    -2.793000000     4.500000000     4.510000000
O    -3.137000000     3.514000000     5.487000000
C    -3.074000000     2.180000000     5.239000000
C    -2.516000000     1.308000000     6.176000000
H    -2.055000000     1.739000000     7.061000000
C    -2.407000000    -0.082000000     5.961000000
O    -1.979000000    -0.969000000     6.938000000
C    -1.616000000    -2.296000000     6.675000000
C    -0.316000000    -2.572000000     6.272000000
H     0.474000000    -1.826000000     6.234000000
C    -2.610000000    -3.285000000     6.702000000
H    -3.621000000    -2.945000000     6.911000000
C    -2.264000000    -4.617000000     6.451000000
H    -3.003000000    -5.414000000     6.456000000
C    -0.993000000    -4.914000000     6.045000000
H    -0.835000000    -5.962000000     5.801000000
C    -0.016000000    -3.881000000     5.869000000
O     1.288000000    -4.168000000     5.466000000
C     1.812000000    -3.979000000     4.206000000
C     3.112000000    -3.579000000     3.927000000
H     3.827000000    -3.373000000     4.719000000
C     3.568000000    -3.461000000     2.634000000
O     4.847000000    -3.074000000     2.426000000
C     5.548000000    -3.241000000     1.183000000
C     5.818000000    -2.085000000     0.442000000
H     5.394000000    -1.139000000     0.768000000
C     5.936000000    -4.502000000     0.802000000
H     5.926000000    -5.295000000     1.547000000
C     6.551000000    -4.647000000    -0.462000000
H     6.952000000    -5.593000000    -0.814000000
C     6.883000000    -3.479000000    -1.148000000
H     7.464000000    -3.537000000    -2.065000000
C     6.450000000    -2.248000000    -0.766000000
O     6.765000000    -1.140000000    -1.484000000
C     5.789000000    -0.328000000    -2.038000000
C     6.031000000     1.019000000    -2.244000000
H     6.972000000     1.472000000    -1.946000000
C     5.060000000     1.792000000    -2.825000000
O     5.383000000     3.122000000    -3.121000000
C     4.376000000     4.021000000    -3.380000000
C     4.197000000     4.352000000    -4.693000000
H     4.639000000     3.684000000    -5.429000000
C     3.386000000     5.427000000    -5.056000000
H     3.185000000     5.582000000    -6.113000000
C     2.772000000     6.259000000    -4.096000000
H     2.233000000     7.147000000    -4.415000000
C     2.975000000     5.915000000    -2.737000000
C     3.750000000     4.816000000    -2.402000000
H     3.874000000     4.456000000    -1.384000000
C     1.729000000     2.486000000     1.916000000
H     2.229000000     3.384000000     1.562000000
C     1.268000000     1.714000000     0.878000000
H     1.547000000     2.090000000    -0.104000000
C     0.508000000     0.583000000     1.088000000
C     0.166000000    -0.258000000    -0.166000000
H     0.208000000     0.391000000    -1.043000000
H     0.892000000    -1.072000000    -0.223000000
H    -0.748000000    -0.855000000    -0.174000000
C     0.290000000     0.156000000     2.393000000
H    -0.290000000    -0.750000000     2.551000000
C     0.776000000     0.843000000     3.466000000
H     0.638000000     0.549000000     4.503000000
C     1.451000000     2.040000000     3.240000000
C     1.999000000     2.862000000     4.436000000
O     1.728000000     2.531000000     5.567000000
O     2.750000000     3.845000000     4.260000000
O     4.788000000     5.531000000     6.498000000
H     4.384000000     5.743000000     5.657000000
H     4.389000000     6.144000000     7.116000000
O     2.376000000     6.389000000     4.760000000
H     1.683000000     6.553000000     5.400000000
H     2.395000000     5.436000000     4.666000000
O     4.961000000     2.394000000     3.385000000
H     4.297000000     3.008000000     3.701000000
H     4.989000000     1.709000000     4.053000000
O     3.053000000     3.684000000     7.589000000
H     3.707000000     4.145000000     7.064000000
H     2.454000000     3.305000000     6.946000000
O     3.967000000     5.485000000     2.354000000
H     3.798000000     4.671000000     2.828000000
H     3.709000000     6.176000000     2.964000000
O     4.583000000     1.635000000     7.959000000
H     4.097000000     1.206000000     7.255000000
H     4.155000000     2.485000000     8.062000000
O     1.809000000     3.899000000     9.904000000
H     1.664000000     4.845000000     9.933000000
H     2.263000000     3.751000000     9.075000000
O     3.737000000     8.355000000     3.404000000
H     2.994000000     8.958000000     3.380000000
H     3.462000000     7.658000000     4.000000000
O     7.025000000     3.939000000     7.192000000
H     6.152000000     4.136000000     6.853000000
H     7.563000000     4.680000000     6.913000000
O     5.519000000     3.598000000     0.560000000
H     5.233000000     4.483000000     0.788000000
H     5.373000000     3.087000000     1.356000000
O     2.939000000     0.337000000     6.000000000
H     2.386000000     1.038000000     5.655000000
H     3.382000000    -0.020000000     5.230000000
O     0.803000000     0.268000000     8.161000000
H     1.303000000     0.209000000     7.347000000
H     0.544000000     1.188000000     8.217000000
O     8.028000000     2.172000000     5.193000000
H     7.929000000     2.573000000     4.330000000
H     7.701000000     2.833000000     5.804000000
O     0.804000000     6.697000000     6.798000000
H     1.011000000     6.926000000     7.704000000
H     0.536000000     5.779000000     6.838000000
O     7.580000000     5.817000000     3.155000000
H     8.036000000     6.570000000     2.778000000
H     6.909000000     6.202000000     3.719000000
O    -1.751000000     5.827000000     8.947000000
H    -1.738000000     5.211000000     9.680000000
H    -0.958000000     5.624000000     8.450000000
O     5.995000000    -2.108000000     5.907000000
H     6.110000000    -1.503000000     6.640000000
H     5.525000000    -1.599000000     5.247000000
O     4.778000000    -0.448000000     3.978000000
H     5.709000000    -0.539000000     3.771000000
H     4.333000000    -0.581000000     3.141000000
O    -0.541000000     4.066000000     7.074000000
H     0.029000000     3.454000000     6.607000000
H    -1.394000000     3.632000000     7.093000000
