218
-1452.74547
C    -2.499000000    -1.008000000     4.951000000
H    -2.820000000    -2.043000000     4.863000000
C    -2.881000000    -0.028000000     4.051000000
C    -2.332000000     1.254000000     4.250000000
H    -2.655000000     1.948000000     3.477000000
C    -3.538000000    -0.347000000     2.732000000
O    -4.020000000    -1.736000000     2.541000000
H    -2.678000000    -0.203000000     2.062000000
O    -4.576000000     0.545000000     2.274000000
C    -4.669000000     0.993000000     0.929000000
C    -4.068000000     2.210000000     0.770000000
H    -3.736000000     2.753000000     1.651000000
C    -3.775000000     2.597000000    -0.529000000
O    -3.055000000     3.755000000    -0.633000000
C    -4.270000000     1.869000000    -1.625000000
C    -3.938000000     2.313000000    -3.094000000
H    -4.659000000     1.882000000    -3.792000000
C    -2.544000000     1.800000000    -3.546000000
C    -2.367000000     0.616000000    -4.254000000
H    -3.274000000     0.025000000    -4.350000000
H    -3.966000000     3.401000000    -3.179000000
C    -4.922000000     0.684000000    -1.375000000
H    -5.344000000     0.127000000    -2.208000000
C    -5.055000000     0.087000000    -0.093000000
C    -5.566000000    -1.394000000     0.049000000
H    -6.189000000    -1.643000000    -0.814000000
H    -6.201000000    -1.618000000     0.908000000
C    -4.364000000    -2.302000000     0.183000000
C    -3.996000000    -3.028000000    -0.944000000
H    -4.535000000    -3.051000000    -1.888000000
C    -3.691000000    -2.479000000     1.460000000
C    -2.583000000    -3.281000000     1.550000000
H    -2.018000000    -3.449000000     2.463000000
C    -2.187000000    -4.036000000     0.438000000
O    -0.987000000    -4.704000000     0.618000000
C     0.204000000    -4.117000000    -0.035000000
C     1.409000000    -4.307000000     0.877000000
C     2.669000000    -4.641000000     0.334000000
H     2.835000000    -4.930000000    -0.701000000
C     1.367000000    -3.955000000     2.181000000
H     0.419000000    -3.670000000     2.629000000
O     0.376000000    -4.729000000    -1.346000000
H     0.053000000    -3.041000000    -0.208000000
C    -2.864000000    -3.870000000    -0.802000000
C    -2.458000000    -4.555000000    -2.078000000
H    -3.316000000    -4.513000000    -2.752000000
H    -2.118000000    -5.546000000    -1.772000000
C    -1.314000000    -3.930000000    -2.916000000
C    -1.526000000    -3.038000000    -4.031000000
H    -2.566000000    -2.814000000    -4.256000000
C     0.043000000    -3.973000000    -2.467000000
C     1.063000000    -3.304000000    -3.082000000
H     2.123000000    -3.322000000    -2.842000000
C     0.764000000    -2.437000000    -4.131000000
O     1.776000000    -1.595000000    -4.656000000
C     1.847000000    -0.332000000    -3.978000000
C     3.192000000    -0.087000000    -3.389000000
C     4.189000000    -1.006000000    -3.369000000
H     4.007000000    -1.955000000    -3.867000000
C     3.400000000     1.166000000    -2.840000000
H     2.665000000     1.967000000    -2.876000000
O     1.328000000     0.766000000    -4.823000000
H     1.151000000    -0.414000000    -3.130000000
C    -0.542000000    -2.241000000    -4.602000000
C    -0.989000000    -1.034000000    -5.550000000
H    -1.918000000    -1.260000000    -6.079000000
H    -0.099000000    -0.955000000    -6.178000000
C    -1.100000000     0.268000000    -4.813000000
C     0.001000000     1.081000000    -4.592000000
C    -0.191000000     2.204000000    -3.787000000
H     0.710000000     2.808000000    -3.718000000
C    -1.427000000     2.609000000    -3.305000000
O    -1.515000000     3.755000000    -2.494000000
C    -1.659000000     3.671000000    -1.070000000
H    -1.362000000     2.668000000    -0.727000000
C    -0.941000000     4.906000000    -0.465000000
C    -1.216000000     5.215000000     0.850000000
H    -1.936000000     4.593000000     1.375000000
C     0.271000000     5.439000000    -0.989000000
H     0.710000000     5.062000000    -1.909000000
C     1.049000000     6.335000000    -0.358000000
O     2.282000000     6.771000000    -0.878000000
C     0.649000000     6.826000000     0.910000000
H     1.303000000     7.564000000     1.367000000
C    -0.382000000     6.160000000     1.531000000
O    -0.785000000     6.659000000     2.831000000
C    -1.621000000     5.910000000     3.644000000
C    -1.170000000     4.692000000     4.142000000
H    -0.215000000     4.312000000     3.788000000
C    -2.901000000     6.363000000     4.023000000
H    -3.228000000     7.321000000     3.625000000
C    -3.658000000     5.576000000     4.881000000
H    -4.639000000     5.906000000     5.212000000
C    -3.208000000     4.327000000     5.371000000
H    -3.806000000     3.732000000     6.057000000
C    -1.884000000     3.988000000     5.064000000
O    -1.324000000     2.943000000     5.719000000
C    -1.623000000     1.669000000     5.359000000
C    -1.252000000     0.718000000     6.255000000
H    -0.869000000     0.975000000     7.239000000
C    -1.696000000    -0.576000000     6.049000000
O    -1.268000000    -1.493000000     7.011000000
C    -0.542000000    -2.472000000     6.466000000
C     0.581000000    -2.287000000     5.645000000
H     0.982000000    -1.276000000     5.627000000
C    -0.913000000    -3.782000000     6.664000000
H    -1.763000000    -4.002000000     7.304000000
C    -0.388000000    -4.882000000     5.919000000
H    -0.805000000    -5.871000000     6.094000000
C     0.729000000    -4.673000000     5.114000000
H     1.199000000    -5.477000000     4.554000000
C     1.266000000    -3.416000000     5.084000000
O     2.400000000    -3.268000000     4.300000000
C     2.494000000    -3.731000000     2.991000000
C     3.739000000    -4.006000000     2.431000000
H     4.640000000    -3.933000000     3.034000000
C     3.826000000    -4.472000000     1.093000000
O     4.972000000    -4.880000000     0.591000000
C     5.416000000    -4.554000000    -0.685000000
C     5.508000000    -3.206000000    -1.087000000
H     5.217000000    -2.395000000    -0.424000000
C     5.859000000    -5.574000000    -1.518000000
H     5.861000000    -6.590000000    -1.132000000
C     6.317000000    -5.282000000    -2.766000000
H     6.652000000    -6.088000000    -3.414000000
C     6.512000000    -3.996000000    -3.194000000
H     6.944000000    -3.784000000    -4.169000000
C     6.074000000    -2.927000000    -2.352000000
O     6.374000000    -1.635000000    -2.771000000
C     5.399000000    -0.687000000    -2.764000000
C     5.683000000     0.584000000    -2.324000000
H     6.650000000     0.814000000    -1.883000000
C     4.624000000     1.491000000    -2.261000000
O     4.813000000     2.769000000    -1.786000000
C     4.152000000     3.889000000    -2.171000000
C     4.197000000     4.211000000    -3.487000000
H     4.605000000     3.522000000    -4.222000000
C     3.701000000     5.424000000    -3.958000000
H     3.611000000     5.675000000    -5.012000000
C     3.223000000     6.415000000    -3.086000000
H     2.955000000     7.384000000    -3.499000000
C     3.027000000     6.027000000    -1.744000000
C     3.472000000     4.730000000    -1.301000000
H     3.411000000     4.388000000    -0.271000000
C     1.448000000     2.146000000     1.302000000
H     2.028000000     3.032000000     1.056000000
C     0.742000000     1.535000000     0.342000000
H     0.618000000     2.040000000    -0.612000000
C     0.034000000     0.310000000     0.589000000
C    -0.563000000    -0.357000000    -0.617000000
H     0.160000000    -0.564000000    -1.409000000
H    -1.058000000    -1.267000000    -0.271000000
H    -1.333000000     0.299000000    -1.029000000
C     0.082000000    -0.191000000     1.969000000
H    -0.482000000    -1.062000000     2.293000000
C     0.750000000     0.556000000     2.966000000
H     0.691000000     0.316000000     4.024000000
C     1.538000000     1.704000000     2.661000000
C     2.362000000     2.401000000     3.714000000
O     2.498000000     1.837000000     4.769000000
O     2.735000000     3.543000000     3.578000000
O     3.440000000     5.484000000     5.239000000
H     3.156000000     4.674000000     4.816000000
H     2.637000000     5.862000000     5.597000000
O     4.230000000     2.653000000     6.542000000
H     3.689000000     2.422000000     5.787000000
H     3.625000000     2.639000000     7.283000000
O     0.971000000    -0.048000000     9.290000000
H     1.007000000     0.348000000    10.160000000
H     1.888000000    -0.183000000     9.050000000
O     4.108000000     5.371000000     2.139000000
H     3.576000000     4.733000000     2.615000000
H     5.012000000     5.106000000     2.311000000
O     6.616000000     4.662000000     7.243000000
H     6.812000000     5.580000000     7.055000000
H     5.826000000     4.477000000     6.735000000
O     2.863000000     2.504000000     9.287000000
H     3.245000000     1.727000000     9.695000000
H     3.581000000     3.137000000     9.259000000
O     4.335000000    -0.961000000     2.631000000
H     4.202000000    -1.001000000     3.578000000
H     3.471000000    -0.753000000     2.277000000
O     3.942000000    -0.454000000     5.302000000
H     3.297000000     0.169000000     4.966000000
H     4.774000000     0.017000000     5.261000000
O     3.645000000    -1.313000000     7.989000000
H     3.478000000    -2.225000000     7.751000000
H     3.934000000    -0.902000000     7.175000000
O     6.801000000     5.202000000     0.415000000
H     6.914000000     4.307000000     0.736000000
H     6.134000000     5.128000000    -0.268000000
O     4.029000000     8.422000000     1.940000000
H     3.745000000     7.563000000     1.627000000
H     4.364000000     8.863000000     1.159000000
O     6.735000000    -0.567000000     1.397000000
H     5.919000000    -0.781000000     1.850000000
H     6.494000000    -0.536000000     0.471000000
O     4.301000000     7.936000000     4.882000000
H     4.386000000     8.122000000     3.946000000
H     4.130000000     6.996000000     4.925000000
O     7.425000000     2.501000000     1.479000000
H     6.747000000     2.708000000     2.123000000
H     7.637000000     1.582000000     1.641000000
O     3.159000000     5.981000000     8.877000000
H     3.700000000     6.719000000     8.595000000
H     3.703000000     5.210000000     8.716000000
O     5.590000000     2.849000000     3.363000000
H     4.795000000     3.342000000     3.564000000
H     5.584000000     2.121000000     3.986000000
O     0.455000000     5.758000000     8.192000000
H     1.330000000     6.119000000     8.333000000
H     0.600000000     4.819000000     8.071000000
O     6.736000000     0.357000000     4.831000000
H     7.560000000     0.733000000     5.139000000
H     6.916000000    -0.580000000     4.749000000
O     0.545000000     3.036000000     7.843000000
H     1.081000000     2.549000000     8.469000000
H     0.478000000     2.457000000     7.084000000
