218
-1472.67762
C    -3.038000000     0.317000000     4.112000000
H    -2.994000000    -0.744000000     3.879000000
C    -3.584000000     1.276000000     3.183000000
C    -3.580000000     2.623000000     3.560000000
H    -3.937000000     3.371000000     2.857000000
C    -3.874000000     0.818000000     1.733000000
O    -4.758000000    -0.351000000     1.824000000
H    -2.859000000     0.642000000     1.346000000
O    -4.658000000     1.786000000     1.068000000
C    -4.355000000     2.031000000    -0.252000000
C    -3.484000000     3.049000000    -0.477000000
H    -3.187000000     3.644000000     0.383000000
C    -2.965000000     3.317000000    -1.694000000
O    -1.895000000     4.200000000    -1.769000000
C    -3.269000000     2.431000000    -2.716000000
C    -2.633000000     2.503000000    -4.101000000
H    -3.341000000     2.171000000    -4.863000000
C    -1.331000000     1.797000000    -4.139000000
C    -1.320000000     0.489000000    -4.667000000
H    -2.250000000     0.060000000    -5.030000000
H    -2.477000000     3.571000000    -4.262000000
C    -4.225000000     1.460000000    -2.495000000
H    -4.476000000     0.785000000    -3.309000000
C    -4.767000000     1.154000000    -1.267000000
C    -5.701000000    -0.048000000    -0.971000000
H    -5.968000000    -0.249000000    -2.011000000
H    -6.493000000     0.268000000    -0.289000000
C    -4.810000000    -1.177000000    -0.402000000
C    -4.328000000    -2.099000000    -1.272000000
H    -4.568000000    -2.052000000    -2.331000000
C    -4.401000000    -1.337000000     0.996000000
C    -3.549000000    -2.292000000     1.416000000
H    -3.319000000    -2.385000000     2.474000000
C    -3.090000000    -3.265000000     0.433000000
O    -2.115000000    -4.236000000     0.735000000
C    -0.764000000    -3.851000000     0.412000000
C     0.196000000    -4.131000000     1.608000000
C     1.565000000    -4.462000000     1.401000000
H     2.014000000    -4.635000000     0.427000000
C    -0.306000000    -3.983000000     2.898000000
H    -1.348000000    -3.744000000     3.091000000
O    -0.424000000    -4.740000000    -0.665000000
H    -0.659000000    -2.803000000     0.095000000
C    -3.437000000    -3.103000000    -0.908000000
C    -3.006000000    -4.055000000    -2.029000000
H    -3.729000000    -4.098000000    -2.846000000
H    -2.973000000    -5.080000000    -1.654000000
C    -1.585000000    -3.694000000    -2.587000000
C    -1.471000000    -2.868000000    -3.661000000
H    -2.340000000    -2.442000000    -4.156000000
C    -0.385000000    -4.112000000    -1.909000000
C     0.865000000    -3.927000000    -2.520000000
H     1.702000000    -4.274000000    -1.920000000
C     0.939000000    -3.070000000    -3.634000000
O     2.199000000    -2.569000000    -3.965000000
C     2.472000000    -1.279000000    -3.462000000
C     3.895000000    -1.126000000    -2.904000000
C     4.525000000    -2.225000000    -2.360000000
H     4.055000000    -3.202000000    -2.436000000
C     4.528000000     0.160000000    -2.744000000
H     4.059000000     1.008000000    -3.236000000
O     2.289000000    -0.268000000    -4.487000000
H     1.921000000    -0.929000000    -2.577000000
C    -0.208000000    -2.577000000    -4.192000000
C    -0.075000000    -1.652000000    -5.345000000
H    -0.836000000    -1.950000000    -6.069000000
H     0.815000000    -1.784000000    -5.963000000
C    -0.087000000    -0.206000000    -4.949000000
C     1.072000000     0.423000000    -4.494000000
C     1.070000000     1.689000000    -3.988000000
H     2.049000000     2.130000000    -3.818000000
C    -0.123000000     2.357000000    -3.697000000
O    -0.107000000     3.590000000    -3.192000000
C    -0.587000000     3.602000000    -1.814000000
H    -0.591000000     2.600000000    -1.360000000
C     0.455000000     4.446000000    -0.951000000
C     0.065000000     4.744000000     0.335000000
H    -0.948000000     4.535000000     0.668000000
C     1.777000000     4.700000000    -1.326000000
H     2.045000000     4.363000000    -2.324000000
C     2.752000000     5.256000000    -0.493000000
O     4.055000000     5.423000000    -0.942000000
C     2.275000000     5.696000000     0.760000000
H     3.044000000     6.063000000     1.435000000
C     0.945000000     5.410000000     1.183000000
O     0.638000000     5.773000000     2.456000000
C    -0.626000000     5.988000000     2.941000000
C    -1.031000000     5.206000000     4.012000000
H    -0.420000000     4.441000000     4.485000000
C    -1.526000000     6.877000000     2.313000000
H    -1.256000000     7.427000000     1.416000000
C    -2.855000000     6.858000000     2.687000000
H    -3.570000000     7.443000000     2.115000000
C    -3.313000000     6.046000000     3.737000000
H    -4.362000000     5.920000000     3.991000000
C    -2.430000000     5.215000000     4.403000000
O    -2.928000000     4.251000000     5.189000000
C    -3.032000000     2.954000000     4.768000000
C    -2.578000000     2.029000000     5.680000000
H    -2.175000000     2.301000000     6.652000000
C    -2.573000000     0.698000000     5.353000000
O    -1.964000000    -0.182000000     6.231000000
C    -2.074000000    -1.557000000     6.286000000
C    -1.051000000    -2.249000000     5.660000000
H    -0.277000000    -1.695000000     5.135000000
C    -3.093000000    -2.223000000     6.984000000
H    -3.783000000    -1.542000000     7.475000000
C    -3.138000000    -3.612000000     7.016000000
H    -3.914000000    -4.163000000     7.542000000
C    -2.094000000    -4.313000000     6.345000000
H    -2.165000000    -5.396000000     6.280000000
C    -1.032000000    -3.611000000     5.732000000
O     0.030000000    -4.325000000     5.278000000
C     0.533000000    -4.257000000     3.969000000
C     1.901000000    -4.559000000     3.809000000
H     2.500000000    -4.890000000     4.653000000
C     2.423000000    -4.611000000     2.516000000
O     3.810000000    -4.771000000     2.479000000
C     4.469000000    -4.959000000     1.265000000
C     5.308000000    -4.022000000     0.655000000
H     5.419000000    -3.048000000     1.123000000
C     4.357000000    -6.167000000     0.620000000
H     3.690000000    -6.888000000     1.086000000
C     4.794000000    -6.454000000    -0.621000000
H     4.678000000    -7.414000000    -1.118000000
C     5.578000000    -5.505000000    -1.247000000
H     5.988000000    -5.591000000    -2.250000000
C     5.711000000    -4.270000000    -0.648000000
O     6.431000000    -3.262000000    -1.300000000
C     5.792000000    -2.133000000    -1.831000000
C     6.402000000    -0.859000000    -1.663000000
H     7.323000000    -0.773000000    -1.092000000
C     5.708000000     0.317000000    -2.037000000
O     6.431000000     1.483000000    -1.755000000
C     5.911000000     2.691000000    -2.185000000
C     6.027000000     3.062000000    -3.501000000
H     6.688000000     2.430000000    -4.088000000
C     5.351000000     4.182000000    -4.044000000
H     5.402000000     4.408000000    -5.105000000
C     4.708000000     5.047000000    -3.204000000
H     4.236000000     5.976000000    -3.512000000
C     4.606000000     4.670000000    -1.862000000
C     5.193000000     3.517000000    -1.366000000
H     5.173000000     3.269000000    -0.308000000
C     1.516000000     2.118000000     0.831000000
H     2.337000000     2.737000000     0.475000000
C     1.000000000     1.210000000    -0.128000000
H     1.275000000     1.280000000    -1.177000000
C    -0.049000000     0.364000000     0.236000000
C    -0.686000000    -0.377000000    -0.901000000
H    -0.895000000     0.298000000    -1.733000000
H     0.067000000    -1.075000000    -1.274000000
H    -1.526000000    -0.997000000    -0.581000000
C    -0.488000000     0.292000000     1.548000000
H    -1.219000000    -0.492000000     1.728000000
C     0.153000000     1.098000000     2.510000000
H    -0.027000000     0.995000000     3.577000000
C     1.085000000     2.014000000     2.164000000
C     1.842000000     2.717000000     3.263000000
O     1.542000000     2.751000000     4.435000000
O     2.898000000     3.312000000     2.938000000
O     7.858000000     3.826000000     3.375000000
H     8.795000000     3.938000000     3.534000000
H     7.806000000     3.108000000     2.745000000
O     2.127000000     7.641000000     3.889000000
H     1.494000000     7.113000000     3.402000000
H     2.312000000     7.128000000     4.675000000
O     3.161000000     3.016000000     7.964000000
H     3.788000000     2.913000000     7.248000000
H     3.696000000     3.274000000     8.715000000
O     4.641000000     5.485000000     3.853000000
H     4.119000000     5.036000000     3.189000000
H     4.519000000     6.416000000     3.666000000
O    -1.087000000     6.078000000     7.935000000
H    -0.137000000     6.175000000     7.865000000
H    -1.214000000     5.176000000     8.230000000
O     4.704000000    -0.212000000     2.248000000
H     4.880000000     0.729000000     2.243000000
H     4.330000000    -0.390000000     1.385000000
O     2.210000000     5.249000000     5.540000000
H     3.148000000     5.197000000     5.357000000
H     1.823000000     4.551000000     5.010000000
O     1.566000000     5.551000000     8.042000000
H     1.540000000     4.691000000     8.460000000
H     1.753000000     5.365000000     7.122000000
O     6.788000000     3.869000000     7.648000000
H     6.671000000     4.818000000     7.641000000
H     6.799000000     3.622000000     6.723000000
O     6.568000000    -0.188000000     6.784000000
H     6.738000000    -0.870000000     7.434000000
H     6.096000000    -0.637000000     6.083000000
O     6.662000000    -2.248000000     3.646000000
H     5.965000000    -1.765000000     4.091000000
H     7.251000000    -2.520000000     4.350000000
O     7.725000000    -0.053000000     2.587000000
H     7.226000000     0.757000000     2.482000000
H     7.059000000    -0.738000000     2.651000000
O     5.310000000     2.502000000     2.426000000
H     4.401000000     2.794000000     2.493000000
H     5.824000000     3.308000000     2.466000000
O    -0.515000000     0.351000000     8.783000000
H    -0.271000000     0.576000000     7.885000000
H    -0.782000000     1.184000000     9.174000000
O     4.376000000    -2.998000000     6.127000000
H     4.253000000    -2.093000000     5.840000000
H     4.929000000    -2.930000000     6.905000000
O     0.596000000     2.074000000     6.654000000
H     1.316000000     2.328000000     7.231000000
H     0.919000000     2.261000000     5.772000000
O     4.727000000    -0.623000000     4.809000000
H     4.642000000    -0.590000000     3.856000000
H     4.371000000     0.213000000     5.110000000
O     4.192000000     2.556000000     5.312000000
H     4.782000000     3.174000000     4.881000000
H     3.376000000     2.618000000     4.816000000
O    -0.734000000     3.585000000     8.424000000
H    -0.454000000     2.871000000     7.851000000
H    -0.437000000     3.324000000     9.295000000
