218
-1459.08211
C    -3.303000000     0.611000000     2.913000000
H    -2.883000000    -0.388000000     2.825000000
C    -4.029000000     1.128000000     1.781000000
C    -4.481000000     2.450000000     1.830000000
H    -5.142000000     2.797000000     1.040000000
C    -4.333000000     0.240000000     0.605000000
O    -4.935000000    -1.081000000     0.973000000
H    -3.309000000     0.123000000     0.223000000
O    -5.080000000     0.951000000    -0.371000000
C    -4.431000000     0.973000000    -1.601000000
C    -3.631000000     2.074000000    -1.974000000
H    -3.750000000     3.035000000    -1.481000000
C    -2.829000000     2.049000000    -3.064000000
O    -1.997000000     3.085000000    -3.313000000
C    -2.713000000     0.826000000    -3.758000000
C    -1.788000000     0.678000000    -5.039000000
H    -2.240000000     0.023000000    -5.787000000
C    -0.391000000     0.265000000    -4.672000000
C    -0.058000000    -1.066000000    -4.851000000
H    -0.736000000    -1.826000000    -5.231000000
H    -1.742000000     1.687000000    -5.456000000
C    -3.604000000    -0.217000000    -3.481000000
H    -3.613000000    -1.147000000    -4.043000000
C    -4.418000000    -0.175000000    -2.350000000
C    -5.114000000    -1.462000000    -1.896000000
H    -5.477000000    -1.988000000    -2.781000000
H    -6.058000000    -1.244000000    -1.392000000
C    -4.325000000    -2.391000000    -1.022000000
C    -3.584000000    -3.474000000    -1.511000000
H    -3.515000000    -3.710000000    -2.570000000
C    -4.353000000    -2.157000000     0.377000000
C    -3.565000000    -3.026000000     1.121000000
H    -3.597000000    -2.957000000     2.205000000
C    -2.653000000    -3.936000000     0.634000000
O    -1.750000000    -4.497000000     1.437000000
C    -0.402000000    -4.028000000     1.431000000
C     0.167000000    -3.784000000     2.769000000
C     1.578000000    -3.575000000     2.858000000
H     2.053000000    -3.550000000     1.880000000
C    -0.540000000    -3.744000000     3.963000000
H    -1.626000000    -3.732000000     3.932000000
O     0.391000000    -4.985000000     0.725000000
H    -0.305000000    -3.096000000     0.854000000
C    -2.647000000    -4.082000000    -0.766000000
C    -1.763000000    -5.163000000    -1.435000000
H    -2.147000000    -5.530000000    -2.389000000
H    -1.801000000    -6.108000000    -0.889000000
C    -0.297000000    -4.656000000    -1.609000000
C     0.020000000    -4.189000000    -2.870000000
H    -0.802000000    -4.213000000    -3.581000000
C     0.653000000    -4.767000000    -0.596000000
C     1.962000000    -4.284000000    -0.886000000
H     2.708000000    -4.226000000    -0.097000000
C     2.257000000    -3.695000000    -2.126000000
O     3.414000000    -2.945000000    -2.239000000
C     3.299000000    -1.530000000    -2.001000000
C     4.505000000    -1.016000000    -1.385000000
C     5.240000000    -1.802000000    -0.504000000
H     4.910000000    -2.813000000    -0.281000000
C     4.823000000     0.363000000    -1.496000000
H     4.138000000     1.051000000    -1.985000000
O     3.225000000    -0.906000000    -3.273000000
H     2.422000000    -1.262000000    -1.393000000
C     1.248000000    -3.670000000    -3.096000000
C     1.595000000    -3.029000000    -4.390000000
H     1.074000000    -3.484000000    -5.234000000
H     2.620000000    -3.233000000    -4.707000000
C     1.182000000    -1.523000000    -4.363000000
C     2.021000000    -0.549000000    -3.791000000
C     1.736000000     0.777000000    -3.684000000
H     2.484000000     1.468000000    -3.304000000
C     0.450000000     1.164000000    -4.088000000
O     0.087000000     2.449000000    -4.038000000
C    -0.656000000     2.926000000    -2.888000000
H    -0.578000000     2.218000000    -2.050000000
C    -0.203000000     4.206000000    -2.267000000
C    -1.071000000     5.006000000    -1.531000000
H    -2.117000000     4.716000000    -1.596000000
C     1.180000000     4.364000000    -2.182000000
H     1.808000000     3.678000000    -2.745000000
C     1.667000000     5.404000000    -1.476000000
O     3.047000000     5.639000000    -1.453000000
C     0.804000000     6.232000000    -0.724000000
H     1.139000000     7.090000000    -0.146000000
C    -0.593000000     6.011000000    -0.767000000
O    -1.408000000     6.902000000    -0.129000000
C    -2.693000000     6.579000000     0.280000000
C    -2.962000000     5.829000000     1.431000000
H    -2.177000000     5.433000000     2.069000000
C    -3.683000000     7.142000000    -0.445000000
H    -3.412000000     7.809000000    -1.259000000
C    -5.047000000     6.913000000    -0.091000000
H    -5.773000000     7.488000000    -0.661000000
C    -5.314000000     6.149000000     1.057000000
H    -6.304000000     5.977000000     1.472000000
C    -4.270000000     5.495000000     1.745000000
O    -4.436000000     4.649000000     2.822000000
C    -4.197000000     3.317000000     2.879000000
C    -3.274000000     2.885000000     3.837000000
H    -2.775000000     3.589000000     4.498000000
C    -2.816000000     1.554000000     3.822000000
O    -1.918000000     1.145000000     4.819000000
C    -2.218000000     0.103000000     5.611000000
C    -1.381000000    -1.023000000     5.517000000
H    -0.586000000    -0.986000000     4.776000000
C    -3.285000000     0.071000000     6.465000000
H    -3.951000000     0.929000000     6.436000000
C    -3.539000000    -1.108000000     7.119000000
H    -4.429000000    -1.202000000     7.736000000
C    -2.699000000    -2.132000000     7.178000000
H    -2.820000000    -3.024000000     7.788000000
C    -1.590000000    -2.128000000     6.289000000
O    -0.746000000    -3.194000000     6.273000000
C     0.019000000    -3.385000000     5.149000000
C     1.431000000    -3.221000000     5.215000000
H     1.796000000    -2.996000000     6.214000000
C     2.201000000    -3.236000000     4.080000000
O     3.534000000    -2.802000000     4.183000000
C     4.553000000    -3.364000000     3.450000000
C     5.283000000    -2.553000000     2.696000000
H     5.167000000    -1.475000000     2.778000000
C     4.776000000    -4.732000000     3.429000000
H     4.180000000    -5.439000000     4.001000000
C     5.725000000    -5.310000000     2.551000000
H     5.882000000    -6.385000000     2.598000000
C     6.400000000    -4.393000000     1.712000000
H     7.106000000    -4.806000000     0.997000000
C     6.307000000    -3.054000000     1.897000000
O     6.961000000    -2.088000000     1.107000000
C     6.282000000    -1.316000000     0.246000000
C     6.564000000     0.047000000     0.160000000
H     7.408000000     0.426000000     0.731000000
C     5.932000000     0.841000000    -0.775000000
O     6.298000000     2.100000000    -0.913000000
C     5.671000000     3.038000000    -1.655000000
C     6.017000000     3.183000000    -2.971000000
H     6.821000000     2.559000000    -3.353000000
C     5.388000000     4.063000000    -3.817000000
H     5.677000000     4.115000000    -4.864000000
C     4.405000000     4.933000000    -3.339000000
H     3.857000000     5.609000000    -3.991000000
C     4.026000000     4.798000000    -1.997000000
C     4.642000000     3.885000000    -1.168000000
H     4.407000000     3.963000000    -0.109000000
C     2.817000000     0.700000000     1.331000000
H     3.761000000     0.188000000     1.500000000
C     1.885000000    -0.119000000     0.800000000
H     2.146000000    -1.162000000     0.638000000
C     0.658000000     0.410000000     0.353000000
C    -0.249000000    -0.451000000    -0.512000000
H    -0.918000000    -1.053000000     0.106000000
H    -0.744000000     0.228000000    -1.209000000
H     0.304000000    -1.210000000    -1.071000000
C     0.326000000     1.768000000     0.535000000
H    -0.652000000     2.154000000     0.260000000
C     1.328000000     2.526000000     1.111000000
H     1.009000000     3.535000000     1.361000000
C     2.619000000     2.034000000     1.455000000
C     3.716000000     2.890000000     1.978000000
O     3.487000000     4.038000000     2.312000000
O     4.856000000     2.417000000     2.053000000
O     7.771000000     3.031000000     1.177000000
H     7.422000000     2.581000000     0.407000000
H     7.170000000     2.797000000     1.884000000
O     0.263000000     6.873000000     3.817000000
H     0.545000000     7.703000000     4.200000000
H     0.899000000     6.701000000     3.122000000
O     5.527000000     4.077000000     7.592000000
H     5.440000000     3.854000000     6.665000000
H     4.826000000     3.587000000     8.022000000
O     7.893000000     3.005000000     5.428000000
H     7.717000000     3.798000000     5.934000000
H     8.763000000     3.146000000     5.056000000
O     6.199000000     5.277000000     1.474000000
H     5.481000000     4.732000000     1.797000000
H     6.952000000     4.686000000     1.443000000
O     2.716000000     6.558000000     2.608000000
H     3.426000000     7.020000000     3.053000000
H     3.034000000     5.660000000     2.518000000
O     2.407000000     1.278000000     4.773000000
H     2.036000000     0.994000000     3.937000000
H     2.298000000     2.229000000     4.773000000
O     6.972000000     1.080000000     7.088000000
H     6.098000000     1.018000000     6.701000000
H     7.456000000     1.654000000     6.495000000
O     5.224000000     3.573000000     4.715000000
H     4.976000000     3.228000000     3.857000000
H     6.085000000     3.192000000     4.887000000
O    -0.557000000     4.835000000     5.345000000
H    -0.295000000     5.640000000     4.898000000
H     0.158000000     4.222000000     5.175000000
O     2.914000000    -0.610000000     6.917000000
H     2.306000000    -0.316000000     6.238000000
H     2.350000000    -0.912000000     7.629000000
O     4.948000000     0.691000000     5.553000000
H     4.091000000     0.960000000     5.223000000
H     4.751000000     0.045000000     6.232000000
O     2.016000000     4.041000000     4.497000000
H     2.476000000     4.168000000     3.668000000
H     2.370000000     4.718000000     5.074000000
O     8.634000000     6.404000000     2.772000000
H     7.743000000     6.644000000     3.029000000
H     8.843000000     6.997000000     2.051000000
O     3.590000000     2.468000000     8.015000000
H     3.445000000     1.623000000     8.441000000
H     3.187000000     2.374000000     7.152000000
O     6.807000000     1.119000000     3.178000000
H     6.511000000     0.960000000     4.075000000
H     6.030000000     1.444000000     2.724000000
O     6.176000000     6.929000000    -0.732000000
H     6.604000000     6.222000000    -1.215000000
H     6.030000000     6.568000000     0.142000000
O     5.004000000     6.274000000     4.348000000
H     5.760000000     6.493000000     3.803000000
H     5.035000000     5.321000000     4.429000000
O     2.384000000     5.950000000     6.407000000
H     2.911000000     6.287000000     7.132000000
H     2.599000000     6.520000000     5.669000000
