218
-1474.56472
C    -4.513000000     1.536000000     2.859000000
H    -4.819000000     0.587000000     3.290000000
C    -4.412000000     1.678000000     1.497000000
C    -4.133000000     2.953000000     1.052000000
H    -3.921000000     3.138000000     0.002000000
C    -4.251000000     0.492000000     0.535000000
O    -4.871000000    -0.761000000     1.110000000
H    -3.183000000     0.267000000     0.403000000
O    -4.922000000     0.695000000    -0.752000000
C    -4.351000000     0.229000000    -1.879000000
C    -3.709000000     1.229000000    -2.674000000
H    -3.565000000     2.249000000    -2.326000000
C    -2.871000000     0.814000000    -3.732000000
O    -2.072000000     1.799000000    -4.258000000
C    -2.698000000    -0.536000000    -4.040000000
C    -1.853000000    -1.015000000    -5.180000000
H    -2.202000000    -1.914000000    -5.692000000
C    -0.479000000    -1.281000000    -4.646000000
C    -0.161000000    -2.559000000    -4.196000000
H    -0.952000000    -3.302000000    -4.129000000
H    -1.855000000    -0.281000000    -5.989000000
C    -3.476000000    -1.489000000    -3.384000000
H    -3.397000000    -2.538000000    -3.658000000
C    -4.307000000    -1.138000000    -2.313000000
C    -4.875000000    -2.252000000    -1.455000000
H    -5.136000000    -3.103000000    -2.088000000
H    -5.856000000    -1.848000000    -1.196000000
C    -4.089000000    -2.667000000    -0.143000000
C    -3.225000000    -3.718000000    -0.228000000
H    -3.100000000    -4.277000000    -1.152000000
C    -4.114000000    -1.858000000     1.030000000
C    -3.305000000    -2.185000000     2.108000000
H    -3.257000000    -1.515000000     2.962000000
C    -2.403000000    -3.256000000     2.023000000
O    -1.576000000    -3.479000000     3.088000000
C    -0.164000000    -3.155000000     2.814000000
C     0.404000000    -2.320000000     3.984000000
C     1.691000000    -1.939000000     3.878000000
H     2.319000000    -2.209000000     3.033000000
C    -0.416000000    -1.822000000     4.984000000
H    -1.486000000    -2.000000000     4.917000000
O     0.621000000    -4.351000000     2.469000000
H    -0.074000000    -2.408000000     2.012000000
C    -2.362000000    -3.996000000     0.848000000
C    -1.514000000    -5.246000000     0.673000000
H    -1.904000000    -5.957000000    -0.059000000
H    -1.445000000    -5.758000000     1.635000000
C    -0.071000000    -4.888000000     0.219000000
C     0.167000000    -4.929000000    -1.169000000
H    -0.611000000    -5.404000000    -1.761000000
C     0.887000000    -4.428000000     1.104000000
C     2.092000000    -4.013000000     0.561000000
H     2.917000000    -3.662000000     1.176000000
C     2.274000000    -3.959000000    -0.830000000
O     3.461000000    -3.405000000    -1.323000000
C     3.495000000    -2.004000000    -1.702000000
C     4.745000000    -1.320000000    -1.195000000
C     5.408000000    -1.686000000    -0.020000000
H     5.214000000    -2.653000000     0.437000000
C     5.169000000    -0.088000000    -1.846000000
H     4.646000000     0.261000000    -2.733000000
O     3.328000000    -1.945000000    -3.150000000
H     2.652000000    -1.463000000    -1.247000000
C     1.324000000    -4.421000000    -1.713000000
C     1.477000000    -4.271000000    -3.194000000
H     0.819000000    -4.978000000    -3.703000000
H     2.502000000    -4.446000000    -3.530000000
C     1.105000000    -2.833000000    -3.695000000
C     2.036000000    -1.800000000    -3.615000000
C     1.762000000    -0.504000000    -4.053000000
H     2.356000000     0.378000000    -3.829000000
C     0.503000000    -0.268000000    -4.593000000
O     0.203000000     1.050000000    -4.844000000
C    -0.660000000     1.826000000    -3.952000000
H    -0.621000000     1.266000000    -3.006000000
C    -0.099000000     3.179000000    -3.558000000
C    -0.954000000     4.165000000    -3.097000000
H    -1.998000000     3.983000000    -2.853000000
C     1.291000000     3.396000000    -3.616000000
H     1.951000000     2.641000000    -4.034000000
C     1.818000000     4.622000000    -3.183000000
O     3.167000000     4.871000000    -2.970000000
C     0.983000000     5.612000000    -2.726000000
H     1.356000000     6.551000000    -2.325000000
C    -0.389000000     5.401000000    -2.762000000
O    -1.142000000     6.388000000    -2.120000000
C    -2.383000000     6.231000000    -1.634000000
C    -2.503000000     5.793000000    -0.289000000
H    -1.657000000     5.624000000     0.372000000
C    -3.506000000     6.360000000    -2.452000000
H    -3.330000000     6.793000000    -3.434000000
C    -4.821000000     6.179000000    -1.928000000
H    -5.708000000     6.294000000    -2.545000000
C    -4.945000000     5.748000000    -0.598000000
H    -5.857000000     5.385000000    -0.130000000
C    -3.794000000     5.676000000     0.228000000
O    -3.862000000     5.316000000     1.520000000
C    -4.092000000     4.071000000     1.925000000
C    -4.114000000     3.851000000     3.286000000
H    -4.158000000     4.695000000     3.969000000
C    -4.373000000     2.631000000     3.779000000
O    -4.338000000     2.446000000     5.107000000
C    -3.908000000     1.330000000     5.712000000
C    -2.529000000     1.159000000     5.872000000
H    -1.757000000     1.850000000     5.545000000
C    -4.816000000     0.338000000     6.110000000
H    -5.885000000     0.522000000     6.042000000
C    -4.398000000    -0.829000000     6.684000000
H    -5.180000000    -1.538000000     6.942000000
C    -3.033000000    -0.993000000     6.890000000
H    -2.681000000    -1.895000000     7.385000000
C    -2.133000000    -0.027000000     6.492000000
O    -0.765000000    -0.195000000     6.751000000
C     0.102000000    -0.922000000     5.910000000
C     1.472000000    -0.669000000     5.946000000
H     1.886000000    -0.096000000     6.772000000
C     2.235000000    -1.189000000     4.940000000
O     3.566000000    -0.880000000     4.905000000
C     4.482000000    -1.664000000     4.261000000
C     5.287000000    -1.154000000     3.265000000
H     5.380000000    -0.117000000     2.954000000
C     4.651000000    -3.047000000     4.658000000
H     4.018000000    -3.498000000     5.417000000
C     5.676000000    -3.763000000     4.046000000
H     5.790000000    -4.791000000     4.380000000
C     6.507000000    -3.170000000     3.074000000
H     7.281000000    -3.744000000     2.571000000
C     6.295000000    -1.916000000     2.614000000
O     7.057000000    -1.469000000     1.628000000
C     6.459000000    -0.983000000     0.470000000
C     6.924000000     0.204000000    -0.140000000
H     7.784000000     0.694000000     0.310000000
C     6.275000000     0.666000000    -1.295000000
O     6.788000000     1.842000000    -1.809000000
C     6.062000000     2.531000000    -2.821000000
C     6.213000000     2.286000000    -4.191000000
H     6.970000000     1.595000000    -4.551000000
C     5.412000000     2.991000000    -5.142000000
H     5.483000000     2.913000000    -6.224000000
C     4.321000000     3.698000000    -4.644000000
H     3.753000000     4.168000000    -5.443000000
C     4.142000000     4.007000000    -3.289000000
C     5.038000000     3.368000000    -2.386000000
H     4.898000000     3.607000000    -1.335000000
C     1.932000000     0.737000000     1.224000000
H     2.823000000     0.424000000     1.762000000
C     1.100000000    -0.269000000     0.671000000
H     1.300000000    -1.321000000     0.852000000
C    -0.029000000    -0.009000000    -0.051000000
C    -0.825000000    -1.123000000    -0.746000000
H    -1.275000000    -1.665000000     0.088000000
H    -1.723000000    -0.791000000    -1.271000000
H    -0.291000000    -1.907000000    -1.288000000
C    -0.429000000     1.317000000    -0.141000000
H    -1.382000000     1.580000000    -0.593000000
C     0.370000000     2.375000000     0.243000000
H    -0.018000000     3.389000000     0.196000000
C     1.546000000     2.093000000     1.002000000
C     2.407000000     3.188000000     1.608000000
O     2.096000000     4.334000000     1.538000000
O     3.317000000     2.932000000     2.337000000
O    -1.052000000     4.608000000     4.156000000
H    -0.608000000     3.772000000     4.021000000
H    -1.153000000     4.675000000     5.106000000
O     4.208000000     8.665000000     2.836000000
H     4.829000000     8.493000000     3.543000000
H     4.167000000     7.843000000     2.347000000
O     6.229000000     5.934000000    -0.402000000
H     7.121000000     5.600000000    -0.499000000
H     6.016000000     6.301000000    -1.260000000
O     6.034000000     2.300000000     2.439000000
H     5.251000000     2.540000000     1.943000000
H     6.094000000     2.964000000     3.126000000
O     1.980000000     3.704000000     7.191000000
H     2.265000000     3.239000000     6.404000000
H     1.397000000     3.087000000     7.635000000
O     3.813000000     7.785000000    -1.789000000
H     3.683000000     7.247000000    -1.007000000
H     4.339000000     8.525000000    -1.486000000
O    -1.126000000     7.376000000     3.461000000
H    -0.983000000     6.437000000     3.342000000
H    -0.479000000     7.791000000     2.891000000
O     3.396000000     6.083000000     0.327000000
H     4.138000000     5.518000000     0.111000000
H     2.888000000     5.580000000     0.963000000
O     6.766000000     3.948000000     4.953000000
H     5.846000000     4.200000000     4.867000000
H     6.801000000     3.443000000     5.765000000
O     8.260000000     0.557000000     3.069000000
H     7.492000000     1.119000000     2.965000000
H     8.065000000    -0.216000000     2.540000000
O     5.978000000     6.685000000     2.295000000
H     5.957000000     6.501000000     1.356000000
H     5.708000000     5.864000000     2.706000000
O     4.405000000     4.873000000     3.839000000
H     3.907000000     4.160000000     3.440000000
H     3.739000000     5.482000000     4.157000000
O     1.613000000     6.016000000     3.595000000
H     1.652000000     5.245000000     3.030000000
H     1.032000000     6.622000000     3.134000000
O     0.667000000     6.085000000     6.316000000
H     1.028000000     5.289000000     6.707000000
H     0.616000000     5.890000000     5.380000000
O     0.059000000     1.848000000     3.463000000
H     0.731000000     1.299000000     3.865000000
H     0.292000000     1.871000000     2.535000000
O     1.936000000     8.905000000     4.930000000
H     2.791000000     8.862000000     5.359000000
H     1.749000000     8.000000000     4.678000000
O     0.515000000     7.155000000     1.183000000
H     0.762000000     7.622000000     0.384000000
H     0.801000000     6.254000000     1.031000000
O     3.081000000     2.338000000     4.900000000
H     3.071000000     2.520000000     3.961000000
H     4.001000000     2.171000000     5.103000000
O     3.130000000     7.262000000     7.070000000
H     2.528000000     6.675000000     6.613000000
H     2.646000000     7.545000000     7.846000000
