218
-1491.89323
C    -4.430000000     2.538000000     0.265000000
H    -4.446000000     2.112000000    -0.735000000
C    -3.380000000     3.371000000     0.727000000
C    -3.458000000     3.820000000     2.037000000
H    -2.675000000     4.418000000     2.497000000
C    -2.153000000     3.632000000    -0.102000000
O    -2.527000000     4.069000000    -1.447000000
H    -1.574000000     2.697000000    -0.107000000
O    -1.345000000     4.568000000     0.542000000
C     0.007000000     4.329000000     0.542000000
C     0.587000000     3.855000000     1.694000000
H    -0.012000000     3.659000000     2.579000000
C     1.922000000     3.583000000     1.715000000
O     2.411000000     2.876000000     2.795000000
C     2.708000000     3.868000000     0.633000000
C     4.190000000     3.456000000     0.710000000
H     4.824000000     4.149000000     0.154000000
C     4.398000000     2.064000000     0.322000000
C     4.600000000     1.764000000    -1.077000000
H     4.638000000     2.631000000    -1.732000000
H     4.569000000     3.564000000     1.729000000
C     2.144000000     4.477000000    -0.457000000
H     2.744000000     4.709000000    -1.333000000
C     0.770000000     4.679000000    -0.525000000
C     0.129000000     5.236000000    -1.790000000
H     0.777000000     5.862000000    -2.407000000
H    -0.651000000     5.979000000    -1.613000000
C    -0.422000000     4.142000000    -2.747000000
C     0.375000000     3.568000000    -3.724000000
H     1.326000000     4.015000000    -4.002000000
C    -1.672000000     3.628000000    -2.468000000
C    -2.150000000     2.561000000    -3.198000000
H    -3.177000000     2.228000000    -3.073000000
C    -1.334000000     1.948000000    -4.085000000
O    -1.804000000     0.786000000    -4.645000000
C    -1.387000000    -0.482000000    -4.180000000
C    -2.534000000    -1.506000000    -3.891000000
C    -2.307000000    -2.872000000    -3.883000000
H    -1.329000000    -3.289000000    -4.111000000
C    -3.809000000    -1.027000000    -3.586000000
H    -4.154000000     0.004000000    -3.579000000
O    -0.330000000    -0.967000000    -5.051000000
H    -1.062000000    -0.268000000    -3.151000000
C    -0.056000000     2.411000000    -4.445000000
C     0.814000000     1.671000000    -5.501000000
H     1.408000000     2.442000000    -5.996000000
H     0.211000000     1.166000000    -6.259000000
C     1.589000000     0.573000000    -4.801000000
C     2.867000000     0.825000000    -4.242000000
H     3.274000000     1.833000000    -4.263000000
C     0.942000000    -0.670000000    -4.674000000
C     1.565000000    -1.630000000    -3.909000000
H     1.098000000    -2.564000000    -3.609000000
C     2.868000000    -1.454000000    -3.392000000
O     3.328000000    -2.528000000    -2.617000000
C     3.350000000    -2.284000000    -1.112000000
C     3.052000000    -3.604000000    -0.321000000
C     1.888000000    -4.244000000    -0.712000000
H     1.412000000    -3.909000000    -1.630000000
C     3.654000000    -3.955000000     0.884000000
H     4.548000000    -3.434000000     1.217000000
O     4.719000000    -1.869000000    -0.741000000
H     2.599000000    -1.496000000    -0.953000000
C     3.550000000    -0.236000000    -3.542000000
C     4.814000000     0.071000000    -2.957000000
H     5.271000000     0.892000000    -3.515000000
H     5.417000000    -0.835000000    -3.040000000
C     4.661000000     0.402000000    -1.457000000
C     4.685000000    -0.542000000    -0.498000000
C     4.576000000    -0.251000000     0.861000000
H     4.571000000    -1.071000000     1.575000000
C     4.298000000     1.046000000     1.208000000
O     3.927000000     1.257000000     2.542000000
C     2.519000000     1.491000000     2.683000000
H     1.983000000     1.150000000     1.785000000
C     1.955000000     0.794000000     3.907000000
C     0.708000000     1.186000000     4.431000000
H     0.188000000     2.067000000     4.062000000
C     2.518000000    -0.377000000     4.373000000
H     3.370000000    -0.868000000     3.910000000
C     1.880000000    -1.048000000     5.399000000
O     2.494000000    -2.130000000     5.950000000
C     0.821000000    -0.542000000     6.092000000
H     0.468000000    -1.054000000     6.983000000
C     0.193000000     0.611000000     5.592000000
O    -1.107000000     0.997000000     6.102000000
C    -1.624000000     2.244000000     5.921000000
C    -2.768000000     2.377000000     5.161000000
H    -3.201000000     1.546000000     4.609000000
C    -1.034000000     3.323000000     6.563000000
H    -0.134000000     3.249000000     7.167000000
C    -1.611000000     4.575000000     6.426000000
H    -1.108000000     5.410000000     6.907000000
C    -2.789000000     4.744000000     5.637000000
H    -3.294000000     5.700000000     5.522000000
C    -3.307000000     3.612000000     4.977000000
O    -4.408000000     3.798000000     4.213000000
C    -4.504000000     3.386000000     2.880000000
C    -5.498000000     2.659000000     2.383000000
H    -6.284000000     2.261000000     3.019000000
C    -5.419000000     2.174000000     1.104000000
O    -6.422000000     1.228000000     0.811000000
C    -6.701000000     0.911000000    -0.517000000
C    -6.246000000    -0.285000000    -1.121000000
H    -5.638000000    -0.943000000    -0.506000000
C    -7.511000000     1.821000000    -1.234000000
H    -7.868000000     2.766000000    -0.832000000
C    -7.839000000     1.480000000    -2.567000000
H    -8.468000000     2.173000000    -3.121000000
C    -7.390000000     0.318000000    -3.208000000
H    -7.497000000     0.115000000    -4.270000000
C    -6.601000000    -0.558000000    -2.440000000
O    -6.139000000    -1.672000000    -3.082000000
C    -4.802000000    -1.987000000    -3.293000000
C    -4.524000000    -3.343000000    -3.190000000
H    -5.246000000    -4.098000000    -2.891000000
C    -3.332000000    -3.788000000    -3.638000000
O    -3.081000000    -5.102000000    -3.627000000
C    -1.834000000    -5.724000000    -3.270000000
C    -1.350000000    -5.576000000    -1.952000000
H    -1.949000000    -5.075000000    -1.195000000
C    -1.068000000    -6.367000000    -4.247000000
H    -1.538000000    -6.422000000    -5.226000000
C     0.127000000    -6.994000000    -3.925000000
H     0.626000000    -7.636000000    -4.647000000
C     0.618000000    -6.809000000    -2.589000000
H     1.593000000    -7.157000000    -2.256000000
C    -0.156000000    -6.145000000    -1.629000000
O     0.259000000    -5.979000000    -0.380000000
C     1.372000000    -5.274000000     0.040000000
C     2.085000000    -5.718000000     1.158000000
H     1.827000000    -6.633000000     1.686000000
C     3.194000000    -5.035000000     1.608000000
O     3.860000000    -5.367000000     2.736000000
C     4.169000000    -4.511000000     3.711000000
C     5.515000000    -4.422000000     4.169000000
H     6.316000000    -4.962000000     3.671000000
C     5.771000000    -3.603000000     5.260000000
H     6.787000000    -3.575000000     5.645000000
C     4.730000000    -2.931000000     5.865000000
H     4.929000000    -2.262000000     6.698000000
C     3.380000000    -2.954000000     5.354000000
C     3.122000000    -3.785000000     4.327000000
H     2.085000000    -3.872000000     4.011000000
C    -1.861000000     0.250000000     1.872000000
H    -1.974000000     0.594000000     2.897000000
C    -0.668000000     0.474000000     1.254000000
H     0.119000000     0.928000000     1.850000000
C    -0.433000000    -0.060000000    -0.009000000
C     0.768000000     0.353000000    -0.861000000
H     0.707000000     1.400000000    -1.166000000
H     1.686000000     0.329000000    -0.270000000
H     0.879000000    -0.172000000    -1.812000000
C    -1.369000000    -0.925000000    -0.494000000
H    -1.174000000    -1.404000000    -1.450000000
C    -2.517000000    -1.221000000     0.246000000
H    -3.278000000    -1.893000000    -0.141000000
C    -2.774000000    -0.657000000     1.463000000
C    -3.879000000    -1.079000000     2.340000000
O    -4.623000000    -2.035000000     2.063000000
O    -4.033000000    -0.611000000     3.432000000
O    -4.743000000    -7.212000000     0.593000000
H    -4.352000000    -7.056000000     1.453000000
H    -5.083000000    -6.358000000     0.327000000
O    -0.990000000    -5.096000000     2.093000000
H    -1.703000000    -5.665000000     2.384000000
H    -0.477000000    -5.640000000     1.496000000
O    -8.731000000    -0.448000000     2.223000000
H    -8.053000000    -0.767000000     2.820000000
H    -8.732000000     0.501000000     2.347000000
O    -4.637000000    -4.149000000     3.740000000
H    -5.539000000    -4.414000000     3.563000000
H    -4.516000000    -3.350000000     3.227000000
O    -1.039000000    -2.731000000     3.314000000
H    -0.811000000    -3.493000000     2.781000000
H    -0.878000000    -1.981000000     2.742000000
O    -8.069000000     1.821000000     5.616000000
H    -8.705000000     1.124000000     5.775000000
H    -7.598000000     1.541000000     4.831000000
O    -6.342000000    -2.943000000     5.918000000
H    -6.223000000    -3.298000000     6.799000000
H    -5.645000000    -3.348000000     5.401000000
O   -10.782000000    -2.025000000     3.955000000
H   -10.146000000    -1.774000000     3.285000000
H   -10.444000000    -2.846000000     4.311000000
O    -5.369000000     1.105000000     7.774000000
H    -5.146000000     0.555000000     7.023000000
H    -6.201000000     1.513000000     7.533000000
O    -3.410000000    -0.793000000     5.956000000
H    -3.395000000    -0.809000000     4.999000000
H    -2.746000000    -0.146000000     6.195000000
O    -3.602000000    -4.251000000     0.719000000
H    -3.970000000    -3.523000000     1.221000000
H    -2.679000000    -4.273000000     0.971000000
O    -7.116000000    -4.933000000     2.945000000
H    -7.560000000    -5.541000000     2.354000000
H    -7.130000000    -4.095000000     2.483000000
O    -0.239000000    -3.730000000     6.196000000
H     0.566000000    -3.213000000     6.191000000
H    -0.642000000    -3.555000000     5.345000000
O    -3.569000000    -6.610000000     3.052000000
H    -3.816000000    -5.752000000     3.397000000
H    -3.906000000    -7.233000000     3.695000000
O   -10.372000000    -1.269000000     0.308000000
H    -9.948000000    -2.120000000     0.195000000
H    -9.734000000    -0.747000000     0.795000000
O    -3.465000000    -3.405000000     7.220000000
H    -3.237000000    -4.045000000     6.546000000
H    -3.274000000    -2.557000000     6.819000000
O    -6.606000000    -0.978000000     3.839000000
H    -5.657000000    -1.052000000     3.733000000
H    -6.815000000    -1.578000000     4.554000000
O    -6.000000000    -4.865000000    -0.057000000
H    -6.473000000    -4.081000000     0.220000000
H    -5.076000000    -4.640000000     0.053000000
O    -7.095000000    -2.799000000     1.329000000
H    -6.180000000    -2.581000000     1.507000000
H    -7.539000000    -1.953000000     1.284000000
