218
-1434.56275
C    -3.130000000     1.680000000     2.992000000
H    -3.021000000     1.716000000     1.911000000
C    -2.123000000     2.357000000     3.698000000
C    -1.995000000     2.150000000     5.094000000
H    -1.203000000     2.603000000     5.685000000
C    -1.034000000     3.026000000     2.958000000
O    -1.428000000     4.042000000     2.006000000
H    -0.569000000     2.189000000     2.416000000
O    -0.026000000     3.533000000     3.841000000
C     1.235000000     3.015000000     3.527000000
C     1.725000000     1.810000000     3.983000000
H     1.144000000     1.133000000     4.604000000
C     2.943000000     1.313000000     3.509000000
O     3.247000000    -0.007000000     3.773000000
C     3.667000000     1.959000000     2.528000000
C     4.919000000     1.408000000     1.861000000
H     5.726000000     2.081000000     1.566000000
C     4.540000000     0.523000000     0.642000000
C     4.785000000     1.005000000    -0.685000000
H     5.027000000     2.055000000    -0.830000000
H     5.562000000     0.878000000     2.567000000
C     3.229000000     3.209000000     2.182000000
H     3.727000000     3.724000000     1.365000000
C     2.005000000     3.752000000     2.648000000
C     1.465000000     5.063000000     2.089000000
H     2.289000000     5.674000000     1.715000000
H     0.850000000     5.620000000     2.799000000
C     0.612000000     4.686000000     0.818000000
C     1.172000000     4.885000000    -0.432000000
H     2.210000000     5.152000000    -0.611000000
C    -0.688000000     4.237000000     0.794000000
C    -1.386000000     4.011000000    -0.408000000
H    -2.380000000     3.578000000    -0.340000000
C    -0.865000000     4.193000000    -1.635000000
O    -1.576000000     3.905000000    -2.764000000
C    -1.413000000     2.626000000    -3.308000000
C    -2.706000000     1.896000000    -3.643000000
C    -3.038000000     1.480000000    -4.924000000
H    -2.383000000     1.750000000    -5.748000000
C    -3.516000000     1.515000000    -2.615000000
H    -3.248000000     1.893000000    -1.631000000
O    -0.486000000     2.814000000    -4.308000000
H    -0.899000000     1.930000000    -2.629000000
C     0.493000000     4.507000000    -1.638000000
C     1.276000000     4.615000000    -2.948000000
H     2.216000000     5.167000000    -2.897000000
H     0.709000000     5.025000000    -3.787000000
C     1.736000000     3.206000000    -3.464000000
C     3.015000000     2.709000000    -3.167000000
H     3.703000000     3.374000000    -2.652000000
C     0.787000000     2.381000000    -4.137000000
C     1.133000000     1.095000000    -4.510000000
H     0.424000000     0.535000000    -5.114000000
C     2.416000000     0.669000000    -4.140000000
O     2.714000000    -0.652000000    -4.438000000
C     2.596000000    -1.525000000    -3.303000000
C     1.743000000    -2.787000000    -3.587000000
C     0.764000000    -2.806000000    -4.570000000
H     0.503000000    -1.880000000    -5.077000000
C     1.808000000    -3.905000000    -2.764000000
H     2.549000000    -3.792000000    -1.976000000
O     3.847000000    -1.847000000    -2.698000000
H     1.960000000    -1.007000000    -2.571000000
C     3.398000000     1.427000000    -3.560000000
C     4.749000000     0.868000000    -3.125000000
H     5.573000000     1.574000000    -3.003000000
H     5.096000000     0.056000000    -3.767000000
C     4.555000000     0.187000000    -1.789000000
C     4.195000000    -1.155000000    -1.631000000
C     4.038000000    -1.661000000    -0.357000000
H     3.735000000    -2.699000000    -0.247000000
C     4.222000000    -0.832000000     0.786000000
O     4.005000000    -1.470000000     1.992000000
C     2.836000000    -0.897000000     2.689000000
H     2.210000000    -0.309000000     2.001000000
C     1.846000000    -1.973000000     3.317000000
C     1.406000000    -1.844000000     4.679000000
H     1.760000000    -1.054000000     5.337000000
C     1.376000000    -3.016000000     2.495000000
H     1.702000000    -2.978000000     1.459000000
C     0.511000000    -3.912000000     2.992000000
O     0.095000000    -4.871000000     2.035000000
C     0.101000000    -3.847000000     4.384000000
H    -0.536000000    -4.572000000     4.885000000
C     0.571000000    -2.742000000     5.180000000
O     0.300000000    -2.748000000     6.553000000
C    -0.242000000    -1.664000000     7.218000000
C    -1.305000000    -0.902000000     6.683000000
H    -1.626000000    -1.028000000     5.653000000
C     0.113000000    -1.502000000     8.525000000
H     0.916000000    -2.111000000     8.932000000
C    -0.483000000    -0.626000000     9.357000000
H    -0.325000000    -0.694000000    10.431000000
C    -1.539000000     0.168000000     8.904000000
H    -1.852000000     1.005000000     9.523000000
C    -1.874000000     0.064000000     7.541000000
O    -2.709000000     1.044000000     7.062000000
C    -2.962000000     1.397000000     5.731000000
C    -4.040000000     0.908000000     5.066000000
H    -4.779000000     0.361000000     5.645000000
C    -4.130000000     1.009000000     3.701000000
O    -5.185000000     0.648000000     2.958000000
C    -5.431000000     1.082000000     1.704000000
C    -5.185000000     0.301000000     0.575000000
H    -4.599000000    -0.614000000     0.611000000
C    -5.950000000     2.372000000     1.670000000
H    -6.214000000     2.975000000     2.535000000
C    -6.317000000     2.818000000     0.424000000
H    -6.850000000     3.756000000     0.291000000
C    -6.133000000     2.025000000    -0.685000000
H    -6.576000000     2.350000000    -1.623000000
C    -5.471000000     0.805000000    -0.655000000
O    -5.243000000     0.115000000    -1.750000000
C    -4.603000000     0.675000000    -2.848000000
C    -4.759000000     0.118000000    -4.056000000
H    -5.617000000    -0.532000000    -4.209000000
C    -4.032000000     0.513000000    -5.157000000
O    -4.188000000    -0.128000000    -6.337000000
C    -3.131000000    -0.898000000    -6.795000000
C    -2.609000000    -2.025000000    -6.104000000
H    -3.037000000    -2.288000000    -5.140000000
C    -2.488000000    -0.488000000    -7.942000000
H    -2.749000000     0.458000000    -8.410000000
C    -1.406000000    -1.243000000    -8.457000000
H    -1.098000000    -0.983000000    -9.466000000
C    -0.951000000    -2.413000000    -7.773000000
H    -0.145000000    -2.973000000    -8.239000000
C    -1.507000000    -2.743000000    -6.574000000
O    -1.006000000    -3.870000000    -5.913000000
C    -0.042000000    -3.890000000    -4.833000000
C     0.273000000    -5.038000000    -4.102000000
H    -0.254000000    -5.976000000    -4.257000000
C     1.165000000    -5.026000000    -3.091000000
O     1.391000000    -6.212000000    -2.398000000
C     1.655000000    -6.238000000    -0.998000000
C     2.583000000    -7.023000000    -0.418000000
H     3.341000000    -7.524000000    -1.014000000
C     2.713000000    -7.064000000     0.990000000
H     3.487000000    -7.690000000     1.425000000
C     1.981000000    -6.168000000     1.813000000
H     2.182000000    -6.223000000     2.880000000
C     0.997000000    -5.431000000     1.220000000
C     0.790000000    -5.493000000    -0.138000000
H    -0.019000000    -4.932000000    -0.599000000
C    -1.452000000    -1.492000000     0.957000000
H    -1.625000000    -1.818000000     1.979000000
C    -0.506000000    -0.492000000     0.769000000
H    -0.002000000    -0.051000000     1.625000000
C    -0.206000000    -0.089000000    -0.528000000
C     0.837000000     1.005000000    -0.821000000
H     1.828000000     0.573000000    -0.672000000
H     0.781000000     1.397000000    -1.839000000
H     0.724000000     1.809000000    -0.090000000
C    -0.780000000    -0.685000000    -1.643000000
H    -0.610000000    -0.344000000    -2.660000000
C    -1.756000000    -1.604000000    -1.451000000
H    -2.325000000    -2.048000000    -2.264000000
C    -2.154000000    -1.954000000    -0.161000000
C    -3.265000000    -2.933000000     0.009000000
O    -3.868000000    -3.383000000    -0.975000000
O    -3.610000000    -3.203000000     1.160000000
O    -8.203000000    -0.338000000    -2.592000000
H    -7.291000000    -0.537000000    -2.381000000
H    -8.588000000    -0.067000000    -1.758000000
O    -1.647000000    -6.643000000     3.695000000
H    -0.859000000    -6.803000000     4.214000000
H    -1.810000000    -5.705000000     3.791000000
O    -5.710000000    -4.612000000     1.862000000
H    -5.122000000    -3.931000000     1.536000000
H    -5.292000000    -4.924000000     2.665000000
O    -5.092000000    -4.006000000    -3.333000000
H    -4.490000000    -4.122000000    -2.598000000
H    -5.757000000    -3.402000000    -3.005000000
O    -6.183000000    -2.498000000    -1.263000000
H    -6.506000000    -2.707000000    -0.386000000
H    -5.283000000    -2.824000000    -1.270000000
O    -7.306000000    -5.835000000    -0.296000000
H    -6.900000000    -6.459000000    -0.898000000
H    -6.615000000    -5.624000000     0.332000000
O    -8.531000000    -4.101000000    -2.056000000
H    -7.865000000    -3.421000000    -1.952000000
H    -8.460000000    -4.630000000    -1.261000000
O    -2.890000000    -3.980000000     3.419000000
H    -3.219000000    -3.611000000     2.599000000
H    -3.655000000    -4.011000000     3.993000000
O    -8.431000000    -0.142000000     0.423000000
H    -7.535000000     0.166000000     0.285000000
H    -8.348000000    -0.832000000     1.081000000
O    -4.030000000    -8.322000000     3.464000000
H    -4.086000000    -8.307000000     2.509000000
H    -3.422000000    -7.614000000     3.680000000
O    -4.164000000    -8.106000000     0.836000000
H    -4.208000000    -8.291000000    -0.102000000
H    -3.586000000    -7.346000000     0.903000000
O    -5.052000000    -4.487000000     4.962000000
H    -6.004000000    -4.482000000     4.855000000
H    -4.918000000    -4.520000000     5.909000000
O    -2.754000000    -5.651000000     1.017000000
H    -3.144000000    -4.777000000     1.053000000
H    -1.970000000    -5.585000000     1.563000000
O    -1.995000000    -5.641000000    -1.673000000
H    -2.204000000    -4.794000000    -2.065000000
H    -2.315000000    -5.575000000    -0.773000000
O    -7.248000000    -1.317000000     4.425000000
H    -8.124000000    -0.995000000     4.212000000
H    -6.693000000    -0.988000000     3.719000000
O    -7.066000000    -5.926000000    -3.871000000
H    -6.273000000    -5.407000000    -3.738000000
H    -7.742000000    -5.460000000    -3.379000000
O    -1.996000000    -8.331000000    -2.752000000
H    -1.771000000    -7.461000000    -2.423000000
H    -1.894000000    -8.263000000    -3.701000000
O    -4.154000000    -5.050000000    -5.582000000
H    -5.007000000    -4.831000000    -5.958000000
H    -4.071000000    -4.472000000    -4.824000000
O    -7.675000000    -3.983000000     4.495000000
H    -7.687000000    -4.021000000     3.539000000
H    -7.532000000    -3.058000000     4.696000000
