218
-1453.11913
C    -3.584000000     2.378000000     2.712000000
H    -3.621000000     2.919000000     1.770000000
C    -2.346000000     2.336000000     3.384000000
C    -2.237000000     1.449000000     4.476000000
H    -1.265000000     1.434000000     4.963000000
C    -1.147000000     3.086000000     2.846000000
O    -1.480000000     4.281000000     2.081000000
H    -0.807000000     2.395000000     2.061000000
O    -0.133000000     3.414000000     3.896000000
C     1.142000000     3.093000000     3.584000000
C     1.598000000     1.896000000     4.099000000
H     1.025000000     1.305000000     4.809000000
C     2.736000000     1.308000000     3.566000000
O     2.924000000     0.015000000     3.819000000
C     3.527000000     2.025000000     2.683000000
C     4.855000000     1.537000000     2.200000000
H     5.598000000     2.329000000     2.089000000
C     4.768000000     0.646000000     0.999000000
C     4.913000000     1.179000000    -0.299000000
H     5.103000000     2.237000000    -0.459000000
H     5.298000000     0.931000000     2.994000000
C     3.115000000     3.228000000     2.166000000
H     3.718000000     3.728000000     1.412000000
C     1.915000000     3.744000000     2.606000000
C     1.329000000     4.980000000     1.914000000
H     2.137000000     5.682000000     1.696000000
H     0.789000000     5.530000000     2.688000000
C     0.496000000     4.610000000     0.738000000
C     0.997000000     4.698000000    -0.523000000
H     2.035000000     5.015000000    -0.576000000
C    -0.857000000     4.241000000     0.883000000
C    -1.643000000     4.055000000    -0.273000000
H    -2.724000000     4.061000000    -0.168000000
C    -1.129000000     4.129000000    -1.557000000
O    -1.860000000     3.748000000    -2.596000000
C    -1.690000000     2.440000000    -3.056000000
C    -2.971000000     1.768000000    -3.484000000
C    -2.996000000     0.554000000    -4.165000000
H    -2.087000000     0.043000000    -4.470000000
C    -4.167000000     2.129000000    -2.866000000
H    -4.206000000     2.999000000    -2.216000000
O    -0.708000000     2.393000000    -4.145000000
H    -1.229000000     1.848000000    -2.252000000
C     0.231000000     4.477000000    -1.666000000
C     0.920000000     4.546000000    -3.011000000
H     1.527000000     5.439000000    -2.849000000
H     0.222000000     4.792000000    -3.814000000
C     1.397000000     3.200000000    -3.362000000
C     2.698000000     2.868000000    -2.996000000
H     3.350000000     3.627000000    -2.571000000
C     0.547000000     2.143000000    -3.787000000
C     1.090000000     0.972000000    -4.154000000
H     0.407000000     0.350000000    -4.726000000
C     2.364000000     0.666000000    -3.880000000
O     2.804000000    -0.627000000    -4.119000000
C     2.771000000    -1.569000000    -3.003000000
C     2.230000000    -2.912000000    -3.425000000
C     1.018000000    -2.918000000    -4.137000000
H     0.654000000    -1.971000000    -4.526000000
C     2.678000000    -3.980000000    -2.771000000
H     3.603000000    -4.068000000    -2.207000000
O     4.111000000    -1.640000000    -2.427000000
H     2.086000000    -1.221000000    -2.216000000
C     3.199000000     1.608000000    -3.146000000
C     4.638000000     1.169000000    -2.790000000
H     5.306000000     2.027000000    -2.880000000
H     4.990000000     0.540000000    -3.610000000
C     4.754000000     0.429000000    -1.405000000
C     4.555000000    -0.942000000    -1.281000000
C     4.434000000    -1.484000000    -0.049000000
H     4.120000000    -2.504000000     0.156000000
C     4.538000000    -0.715000000     1.095000000
O     4.222000000    -1.310000000     2.282000000
C     2.885000000    -0.981000000     2.747000000
H     2.275000000    -0.553000000     1.938000000
C     2.202000000    -2.186000000     3.283000000
C     1.457000000    -2.222000000     4.522000000
H     1.480000000    -1.387000000     5.217000000
C     2.130000000    -3.317000000     2.565000000
H     2.504000000    -3.343000000     1.544000000
C     1.350000000    -4.438000000     2.912000000
O     1.061000000    -5.482000000     2.025000000
C     0.744000000    -4.478000000     4.160000000
H     0.182000000    -5.323000000     4.552000000
C     0.769000000    -3.347000000     4.955000000
O     0.218000000    -3.365000000     6.177000000
C    -0.366000000    -2.237000000     6.686000000
C    -1.637000000    -1.755000000     6.271000000
H    -2.193000000    -2.211000000     5.456000000
C     0.373000000    -1.409000000     7.575000000
H     1.373000000    -1.674000000     7.907000000
C    -0.026000000    -0.111000000     7.836000000
H     0.450000000     0.541000000     8.564000000
C    -1.262000000     0.259000000     7.417000000
H    -1.700000000     1.181000000     7.790000000
C    -2.064000000    -0.526000000     6.621000000
O    -3.214000000    -0.013000000     6.142000000
C    -3.403000000     0.811000000     5.016000000
C    -4.602000000     1.020000000     4.423000000
H    -5.403000000     0.328000000     4.673000000
C    -4.738000000     1.742000000     3.202000000
O    -5.965000000     1.700000000     2.528000000
C    -6.183000000     2.383000000     1.358000000
C    -6.060000000     1.714000000     0.147000000
H    -5.938000000     0.636000000     0.079000000
C    -6.595000000     3.743000000     1.356000000
H    -6.646000000     4.192000000     2.345000000
C    -6.872000000     4.426000000     0.128000000
H    -7.123000000     5.481000000     0.205000000
C    -6.753000000     3.702000000    -1.061000000
H    -7.094000000     4.215000000    -1.956000000
C    -6.414000000     2.365000000    -1.035000000
O    -6.468000000     1.789000000    -2.278000000
C    -5.380000000     1.367000000    -2.976000000
C    -5.357000000     0.270000000    -3.772000000
H    -6.311000000    -0.199000000    -3.998000000
C    -4.213000000    -0.102000000    -4.416000000
O    -4.281000000    -1.229000000    -5.211000000
C    -3.183000000    -1.755000000    -5.858000000
C    -2.534000000    -2.769000000    -5.201000000
H    -2.832000000    -3.141000000    -4.224000000
C    -2.708000000    -1.166000000    -7.067000000
H    -3.292000000    -0.298000000    -7.359000000
C    -1.701000000    -1.709000000    -7.758000000
H    -1.269000000    -1.427000000    -8.715000000
C    -1.011000000    -2.737000000    -7.094000000
H    -0.134000000    -3.202000000    -7.537000000
C    -1.396000000    -3.211000000    -5.851000000
O    -0.608000000    -4.224000000    -5.286000000
C     0.443000000    -4.128000000    -4.434000000
C     0.961000000    -5.299000000    -3.833000000
H     0.430000000    -6.230000000    -4.014000000
C     2.043000000    -5.242000000    -3.048000000
O     2.495000000    -6.392000000    -2.482000000
C     2.671000000    -6.490000000    -1.089000000
C     3.694000000    -7.335000000    -0.676000000
H     4.397000000    -7.706000000    -1.417000000
C     3.953000000    -7.387000000     0.695000000
H     4.811000000    -7.939000000     1.069000000
C     3.102000000    -6.779000000     1.623000000
H     3.250000000    -6.920000000     2.691000000
C     2.019000000    -6.024000000     1.185000000
C     1.790000000    -5.851000000    -0.189000000
H     0.841000000    -5.464000000    -0.551000000
C    -1.126000000    -1.941000000     2.066000000
H    -1.422000000    -2.389000000     3.011000000
C    -0.405000000    -0.773000000     1.913000000
H    -0.181000000    -0.048000000     2.692000000
C     0.122000000    -0.434000000     0.647000000
C     0.915000000     0.812000000     0.425000000
H     0.400000000     1.340000000    -0.380000000
H     0.903000000     1.517000000     1.260000000
H     1.933000000     0.584000000     0.101000000
C    -0.085000000    -1.332000000    -0.384000000
H     0.401000000    -1.132000000    -1.335000000
C    -0.921000000    -2.451000000    -0.263000000
H    -1.125000000    -3.109000000    -1.104000000
C    -1.457000000    -2.733000000     1.033000000
C    -2.426000000    -3.889000000     1.212000000
O    -2.742000000    -4.474000000     0.169000000
O    -3.171000000    -4.018000000     2.170000000
O    -5.284000000    -8.297000000    -3.545000000
H    -4.819000000    -8.328000000    -2.709000000
H    -5.755000000    -7.464000000    -3.528000000
O    -0.331000000    -5.809000000     7.413000000
H    -1.180000000    -5.497000000     7.728000000
H    -0.087000000    -5.188000000     6.728000000
O    -0.247000000    -8.631000000    -1.247000000
H     0.059000000    -8.691000000    -2.152000000
H    -0.736000000    -7.809000000    -1.214000000
O    -4.969000000    -6.337000000     3.053000000
H    -4.418000000    -5.592000000     2.812000000
H    -4.478000000    -6.783000000     3.743000000
O    -6.065000000    -1.884000000    -0.572000000
H    -5.876000000    -2.202000000     0.311000000
H    -6.583000000    -2.582000000    -0.972000000
O    -6.316000000    -5.679000000    -3.919000000
H    -6.480000000    -5.549000000    -2.985000000
H    -7.134000000    -5.421000000    -4.344000000
O    -5.081000000    -6.095000000     0.387000000
H    -5.130000000    -6.271000000     1.327000000
H    -4.483000000    -5.351000000     0.314000000
O    -7.602000000    -6.611000000     3.693000000
H    -6.755000000    -6.252000000     3.429000000
H    -7.384000000    -7.402000000     4.185000000
O    -7.169000000    -5.924000000    -1.399000000
H    -7.699000000    -5.173000000    -1.130000000
H    -6.619000000    -6.113000000    -0.640000000
O    -3.198000000    -4.532000000     4.800000000
H    -3.057000000    -4.280000000     3.887000000
H    -3.050000000    -5.478000000     4.812000000
O    -5.625000000    -2.617000000     2.073000000
H    -5.845000000    -2.602000000     3.005000000
H    -4.686000000    -2.803000000     2.052000000
O    -8.230000000    -1.057000000     2.805000000
H    -7.482000000    -0.868000000     2.239000000
H    -8.501000000    -0.201000000     3.137000000
O    -1.888000000    -9.081000000     3.263000000
H    -1.883000000    -8.328000000     2.672000000
H    -0.970000000    -9.204000000     3.502000000
O    -3.642000000    -8.085000000    -0.708000000
H    -4.156000000    -7.444000000    -0.216000000
H    -2.991000000    -8.400000000    -0.081000000
O    -1.377000000    -7.120000000     1.491000000
H    -2.053000000    -6.594000000     1.063000000
H    -0.554000000    -6.788000000     1.134000000
O    -1.443000000    -6.185000000    -1.612000000
H    -1.682000000    -6.395000000    -2.514000000
H    -2.037000000    -5.476000000    -1.365000000
O    -3.195000000    -7.366000000     5.087000000
H    -2.733000000    -8.149000000     4.788000000
H    -3.248000000    -7.468000000     6.038000000
O    -5.670000000    -4.016000000     5.929000000
H    -4.842000000    -4.245000000     5.508000000
H    -5.422000000    -3.425000000     6.641000000
O    -3.569000000    -3.753000000    -2.214000000
H    -3.221000000    -3.882000000    -1.332000000
H    -4.229000000    -3.068000000    -2.114000000
