218
-1449.85438
C    -2.056000000     1.760000000     4.504000000
H    -2.116000000     2.734000000     4.024000000
C    -0.926000000     0.942000000     4.451000000
C    -0.911000000    -0.191000000     5.305000000
H     0.042000000    -0.701000000     5.423000000
C     0.403000000     1.367000000     3.810000000
O     0.493000000     2.759000000     3.758000000
H     0.431000000     0.869000000     2.829000000
O     1.573000000     0.816000000     4.471000000
C     2.611000000     0.384000000     3.662000000
C     2.746000000    -0.973000000     3.507000000
H     1.985000000    -1.582000000     3.987000000
C     3.787000000    -1.472000000     2.726000000
O     3.742000000    -2.825000000     2.468000000
C     4.622000000    -0.589000000     2.077000000
C     5.624000000    -1.040000000     1.023000000
H     6.451000000    -0.330000000     1.089000000
C     4.898000000    -1.086000000    -0.345000000
C     4.884000000     0.029000000    -1.204000000
H     5.395000000     0.927000000    -0.868000000
H     5.828000000    -2.089000000     1.246000000
C     4.486000000     0.812000000     2.287000000
H     5.098000000     1.481000000     1.688000000
C     3.460000000     1.348000000     3.078000000
C     3.327000000     2.865000000     3.224000000
H     4.324000000     3.302000000     3.132000000
H     2.998000000     3.114000000     4.234000000
C     2.271000000     3.349000000     2.300000000
C     2.710000000     3.823000000     1.052000000
H     3.786000000     3.727000000     0.930000000
C     0.986000000     3.458000000     2.666000000
C     0.074000000     4.056000000     1.840000000
H    -0.958000000     4.197000000     2.151000000
C     0.489000000     4.526000000     0.584000000
O    -0.479000000     5.084000000    -0.159000000
C    -0.783000000     4.184000000    -1.246000000
C    -2.319000000     3.898000000    -1.380000000
C    -2.854000000     3.697000000    -2.623000000
H    -2.388000000     4.038000000    -3.544000000
C    -3.198000000     3.713000000    -0.266000000
H    -2.803000000     3.834000000     0.739000000
O    -0.139000000     4.537000000    -2.485000000
H    -0.384000000     3.243000000    -0.838000000
C     1.807000000     4.448000000     0.157000000
C     2.208000000     5.101000000    -1.100000000
H     3.182000000     5.565000000    -0.928000000
H     1.644000000     5.970000000    -1.447000000
C     2.160000000     4.076000000    -2.232000000
C     3.340000000     3.301000000    -2.453000000
H     4.197000000     3.429000000    -1.797000000
C     0.982000000     3.903000000    -2.911000000
C     0.931000000     2.855000000    -3.830000000
H    -0.025000000     2.607000000    -4.285000000
C     1.894000000     1.905000000    -3.912000000
O     1.676000000     0.743000000    -4.618000000
C     1.534000000    -0.484000000    -3.843000000
C     0.229000000    -1.217000000    -4.276000000
C    -0.747000000    -0.493000000    -5.018000000
H    -0.563000000     0.483000000    -5.461000000
C     0.031000000    -2.537000000    -3.904000000
H     0.806000000    -3.102000000    -3.393000000
O     2.704000000    -1.283000000    -3.852000000
H     1.447000000    -0.174000000    -2.791000000
C     3.212000000     2.139000000    -3.227000000
C     4.310000000     1.178000000    -3.341000000
H     5.271000000     1.695000000    -3.377000000
H     4.343000000     0.747000000    -4.344000000
C     4.253000000    -0.038000000    -2.446000000
C     3.577000000    -1.217000000    -2.794000000
C     3.419000000    -2.325000000    -1.949000000
H     2.810000000    -3.214000000    -2.092000000
C     4.100000000    -2.185000000    -0.679000000
O     3.865000000    -3.257000000     0.116000000
C     2.991000000    -3.095000000     1.265000000
H     2.319000000    -2.270000000     0.984000000
C     1.947000000    -4.254000000     1.451000000
C     1.124000000    -4.321000000     2.574000000
H     1.277000000    -3.609000000     3.381000000
C     1.749000000    -5.214000000     0.437000000
H     2.391000000    -5.239000000    -0.439000000
C     0.700000000    -6.145000000     0.493000000
O     0.578000000    -7.134000000    -0.572000000
C    -0.083000000    -6.206000000     1.649000000
H    -0.823000000    -6.995000000     1.762000000
C     0.204000000    -5.379000000     2.679000000
O    -0.690000000    -5.401000000     3.737000000
C    -0.504000000    -4.645000000     4.873000000
C    -1.389000000    -3.602000000     5.145000000
H    -2.255000000    -3.419000000     4.514000000
C     0.457000000    -4.934000000     5.839000000
H     1.173000000    -5.723000000     5.626000000
C     0.578000000    -4.206000000     7.012000000
H     1.358000000    -4.485000000     7.716000000
C    -0.261000000    -3.085000000     7.189000000
H    -0.252000000    -2.504000000     8.108000000
C    -1.249000000    -2.807000000     6.265000000
O    -2.132000000    -1.794000000     6.564000000
C    -2.059000000    -0.636000000     5.920000000
C    -3.194000000     0.121000000     5.801000000
H    -4.037000000    -0.386000000     6.264000000
C    -3.230000000     1.307000000     5.130000000
O    -4.413000000     1.966000000     5.196000000
C    -4.886000000     2.795000000     4.168000000
C    -4.848000000     2.374000000     2.838000000
H    -4.417000000     1.432000000     2.507000000
C    -5.473000000     3.980000000     4.600000000
H    -5.720000000     4.268000000     5.619000000
C    -5.927000000     4.831000000     3.605000000
H    -6.325000000     5.796000000     3.910000000
C    -5.844000000     4.549000000     2.234000000
H    -6.191000000     5.195000000     1.433000000
C    -5.340000000     3.261000000     1.894000000
O    -5.336000000     2.936000000     0.567000000
C    -4.537000000     3.311000000    -0.482000000
C    -5.012000000     3.032000000    -1.701000000
H    -6.025000000     2.657000000    -1.821000000
C    -4.169000000     3.332000000    -2.803000000
O    -4.667000000     3.383000000    -4.087000000
C    -4.072000000     2.795000000    -5.118000000
C    -3.718000000     1.439000000    -5.093000000
H    -3.888000000     0.847000000    -4.196000000
C    -3.862000000     3.556000000    -6.261000000
H    -4.098000000     4.613000000    -6.161000000
C    -3.203000000     2.969000000    -7.375000000
H    -3.086000000     3.472000000    -8.332000000
C    -2.949000000     1.592000000    -7.359000000
H    -2.628000000     1.180000000    -8.312000000
C    -3.217000000     0.804000000    -6.257000000
O    -2.953000000    -0.558000000    -6.237000000
C    -1.957000000    -1.158000000    -5.406000000
C    -2.161000000    -2.454000000    -4.988000000
H    -3.015000000    -2.962000000    -5.429000000
C    -1.162000000    -3.133000000    -4.301000000
O    -1.379000000    -4.431000000    -3.973000000
C    -0.523000000    -5.413000000    -3.578000000
C     0.148000000    -6.107000000    -4.519000000
H     0.073000000    -5.943000000    -5.591000000
C     0.939000000    -7.249000000    -4.155000000
H     1.503000000    -7.868000000    -4.848000000
C     1.066000000    -7.546000000    -2.812000000
H     1.604000000    -8.453000000    -2.550000000
C     0.391000000    -6.802000000    -1.824000000
C    -0.334000000    -5.711000000    -2.205000000
H    -0.904000000    -5.156000000    -1.464000000
C    -1.139000000    -2.405000000     0.337000000
H    -1.132000000    -3.307000000     0.942000000
C    -0.110000000    -1.506000000     0.595000000
H     0.394000000    -1.662000000     1.546000000
C     0.076000000    -0.365000000    -0.133000000
C     1.295000000     0.396000000     0.089000000
H     0.920000000     1.354000000     0.456000000
H     2.002000000    -0.109000000     0.752000000
H     1.721000000     0.653000000    -0.883000000
C    -0.795000000    -0.147000000    -1.268000000
H    -0.645000000     0.693000000    -1.941000000
C    -1.875000000    -1.042000000    -1.538000000
H    -2.579000000    -0.886000000    -2.351000000
C    -2.084000000    -2.172000000    -0.684000000
C    -3.115000000    -3.221000000    -1.068000000
O    -4.062000000    -2.934000000    -1.735000000
O    -3.258000000    -4.129000000    -0.291000000
O    -7.840000000    -3.836000000     0.768000000
H    -8.473000000    -3.643000000     0.077000000
H    -7.330000000    -3.032000000     0.858000000
O    -7.823000000    -5.749000000    -2.490000000
H    -7.286000000    -6.540000000    -2.521000000
H    -7.249000000    -5.056000000    -2.818000000
O    -4.093000000    -9.011000000    -3.464000000
H    -3.891000000    -9.380000000    -4.324000000
H    -4.244000000    -8.081000000    -3.632000000
O    -6.343000000    -2.165000000     4.115000000
H    -6.702000000    -3.052000000     4.085000000
H    -5.493000000    -2.236000000     3.680000000
O    -2.364000000    -9.732000000    -1.036000000
H    -2.772000000   -10.096000000    -1.822000000
H    -2.576000000    -8.799000000    -1.067000000
O    -6.157000000    -1.222000000    -2.062000000
H    -5.350000000    -1.737000000    -2.056000000
H    -6.756000000    -1.724000000    -2.615000000
O    -4.257000000    -6.426000000    -4.418000000
H    -3.874000000    -6.227000000    -5.272000000
H    -4.921000000    -5.749000000    -4.289000000
O    -5.588000000    -5.247000000    -0.394000000
H    -4.760000000    -4.771000000    -0.455000000
H    -6.231000000    -4.579000000    -0.156000000
O    -6.879000000    -2.613000000    -5.139000000
H    -7.688000000    -3.125000000    -5.159000000
H    -7.148000000    -1.731000000    -5.397000000
O    -4.010000000    -2.885000000     2.905000000
H    -3.322000000    -2.437000000     2.414000000
H    -3.828000000    -3.816000000     2.778000000
O    -6.128000000    -1.717000000     0.624000000
H    -5.210000000    -1.899000000     0.827000000
H    -6.118000000    -1.427000000    -0.288000000
O    -7.505000000    -6.580000000     1.540000000
H    -7.828000000    -5.682000000     1.462000000
H    -6.818000000    -6.645000000     0.877000000
O    -7.950000000     0.387000000    -2.854000000
H    -8.633000000     0.461000000    -2.188000000
H    -7.263000000    -0.132000000    -2.436000000
O    -4.472000000    -5.167000000     4.705000000
H    -4.023000000    -5.457000000     3.911000000
H    -5.369000000    -4.991000000     4.422000000
O    -5.703000000    -4.416000000    -3.452000000
H    -5.086000000    -4.001000000    -2.850000000
H    -6.053000000    -3.693000000    -3.973000000
O    -7.884000000    -0.425000000     2.253000000
H    -7.054000000    -0.649000000     1.832000000
H    -7.673000000    -0.373000000     3.186000000
O    -3.500000000    -5.582000000     2.128000000
H    -3.038000000    -6.411000000     2.006000000
H    -3.796000000    -5.341000000     1.250000000
O    -3.027000000    -7.036000000    -1.254000000
H    -3.421000000    -6.220000000    -0.947000000
H    -2.504000000    -6.780000000    -2.014000000
O    -6.333000000    -7.877000000    -2.027000000
H    -5.644000000    -8.437000000    -2.384000000
H    -5.929000000    -7.454000000    -1.269000000
