218
-1469.02442
C    -2.677000000     1.978000000     4.396000000
H    -2.644000000     3.025000000     4.108000000
C    -1.527000000     1.153000000     4.394000000
C    -1.637000000    -0.193000000     4.511000000
H    -0.762000000    -0.815000000     4.340000000
C    -0.144000000     1.725000000     4.025000000
O    -0.047000000     3.176000000     4.043000000
H     0.025000000     1.370000000     2.998000000
O     0.972000000     1.128000000     4.765000000
C     2.111000000     0.704000000     4.091000000
C     2.354000000    -0.650000000     4.017000000
H     1.594000000    -1.310000000     4.427000000
C     3.397000000    -1.101000000     3.248000000
O     3.443000000    -2.380000000     2.980000000
C     4.269000000    -0.191000000     2.600000000
C     5.440000000    -0.542000000     1.700000000
H     6.233000000     0.209000000     1.726000000
C     4.976000000    -0.730000000     0.264000000
C     4.969000000     0.308000000    -0.642000000
H     5.414000000     1.281000000    -0.448000000
H     5.923000000    -1.428000000     2.118000000
C     4.034000000     1.169000000     2.800000000
H     4.661000000     1.884000000     2.272000000
C     2.924000000     1.644000000     3.471000000
C     2.709000000     3.118000000     3.724000000
H     3.676000000     3.625000000     3.715000000
H     2.394000000     3.348000000     4.744000000
C     1.778000000     3.640000000     2.641000000
C     2.363000000     4.157000000     1.454000000
H     3.433000000     4.141000000     1.263000000
C     0.413000000     3.716000000     2.872000000
C    -0.453000000     4.182000000     1.829000000
H    -1.533000000     4.291000000     1.886000000
C     0.099000000     4.552000000     0.604000000
O    -0.825000000     4.769000000    -0.412000000
C    -0.994000000     3.801000000    -1.434000000
C    -2.461000000     3.565000000    -1.835000000
C    -2.899000000     3.387000000    -3.176000000
H    -2.182000000     3.653000000    -3.949000000
C    -3.379000000     3.345000000    -0.798000000
H    -2.945000000     3.280000000     0.196000000
O    -0.206000000     4.194000000    -2.546000000
H    -0.641000000     2.839000000    -1.033000000
C     1.508000000     4.561000000     0.416000000
C     2.125000000     4.970000000    -0.888000000
H     3.174000000     5.231000000    -0.730000000
H     1.695000000     5.951000000    -1.100000000
C     2.079000000     3.922000000    -1.873000000
C     3.274000000     3.179000000    -2.075000000
H     4.194000000     3.472000000    -1.576000000
C     1.020000000     3.578000000    -2.681000000
C     1.059000000     2.553000000    -3.590000000
H     0.178000000     2.389000000    -4.205000000
C     2.224000000     1.852000000    -3.667000000
O     2.249000000     0.717000000    -4.410000000
C     2.077000000    -0.535000000    -3.726000000
C     0.834000000    -1.292000000    -4.150000000
C    -0.007000000    -0.695000000    -5.046000000
H     0.097000000     0.349000000    -5.330000000
C     0.660000000    -2.613000000    -3.743000000
H     1.417000000    -3.109000000    -3.141000000
O     3.324000000    -1.265000000    -3.527000000
H     1.858000000    -0.206000000    -2.700000000
C     3.316000000     2.098000000    -2.906000000
C     4.574000000     1.282000000    -2.955000000
H     5.443000000     1.928000000    -2.815000000
H     4.914000000     0.933000000    -3.932000000
C     4.517000000     0.166000000    -1.908000000
C     3.895000000    -1.072000000    -2.294000000
C     3.941000000    -2.144000000    -1.379000000
H     3.367000000    -3.030000000    -1.637000000
C     4.483000000    -1.983000000    -0.159000000
O     4.289000000    -2.954000000     0.764000000
C     3.110000000    -2.899000000     1.665000000
H     2.329000000    -2.256000000     1.232000000
C     2.380000000    -4.183000000     1.835000000
C     1.491000000    -4.281000000     2.926000000
H     1.384000000    -3.542000000     3.715000000
C     2.268000000    -5.092000000     0.790000000
H     2.936000000    -4.974000000    -0.060000000
C     1.433000000    -6.214000000     0.925000000
O     1.390000000    -7.170000000    -0.083000000
C     0.675000000    -6.404000000     2.068000000
H     0.032000000    -7.278000000     2.126000000
C     0.747000000    -5.452000000     3.093000000
O     0.016000000    -5.704000000     4.246000000
C    -0.486000000    -4.707000000     5.051000000
C    -1.627000000    -3.922000000     4.601000000
H    -2.148000000    -4.194000000     3.686000000
C     0.089000000    -4.451000000     6.266000000
H     0.945000000    -5.026000000     6.608000000
C    -0.332000000    -3.354000000     7.027000000
H     0.135000000    -3.029000000     7.953000000
C    -1.375000000    -2.532000000     6.542000000
H    -1.684000000    -1.598000000     7.003000000
C    -2.014000000    -2.828000000     5.339000000
O    -3.092000000    -2.040000000     4.992000000
C    -2.908000000    -0.688000000     4.887000000
C    -3.981000000     0.126000000     4.921000000
H    -4.964000000    -0.310000000     5.075000000
C    -3.928000000     1.468000000     4.621000000
O    -5.092000000     2.220000000     4.625000000
C    -5.530000000     2.846000000     3.501000000
C    -5.301000000     2.334000000     2.187000000
H    -4.789000000     1.393000000     2.002000000
C    -6.092000000     4.080000000     3.690000000
H    -6.122000000     4.535000000     4.676000000
C    -6.661000000     4.766000000     2.607000000
H    -7.166000000     5.721000000     2.723000000
C    -6.515000000     4.246000000     1.317000000
H    -7.002000000     4.791000000     0.511000000
C    -5.870000000     3.030000000     1.110000000
O    -5.670000000     2.550000000    -0.138000000
C    -4.703000000     2.958000000    -1.105000000
C    -5.150000000     2.929000000    -2.410000000
H    -6.163000000     2.566000000    -2.564000000
C    -4.194000000     3.027000000    -3.495000000
O    -4.611000000     2.718000000    -4.800000000
C    -3.761000000     2.258000000    -5.754000000
C    -3.140000000     0.940000000    -5.521000000
H    -3.456000000     0.403000000    -4.631000000
C    -3.696000000     2.809000000    -7.025000000
H    -4.223000000     3.739000000    -7.225000000
C    -2.793000000     2.279000000    -7.921000000
H    -2.595000000     2.697000000    -8.905000000
C    -2.253000000     0.995000000    -7.716000000
H    -1.672000000     0.438000000    -8.446000000
C    -2.449000000     0.342000000    -6.506000000
O    -2.053000000    -1.007000000    -6.367000000
C    -1.152000000    -1.409000000    -5.418000000
C    -1.399000000    -2.664000000    -4.979000000
H    -2.281000000    -3.244000000    -5.240000000
C    -0.510000000    -3.325000000    -4.118000000
O    -0.721000000    -4.636000000    -3.605000000
C     0.288000000    -5.477000000    -3.130000000
C     1.040000000    -6.149000000    -4.100000000
H     0.785000000    -5.934000000    -5.135000000
C     1.925000000    -7.130000000    -3.683000000
H     2.384000000    -7.762000000    -4.438000000
C     2.021000000    -7.437000000    -2.350000000
H     2.593000000    -8.314000000    -2.057000000
C     1.282000000    -6.746000000    -1.385000000
C     0.430000000    -5.763000000    -1.766000000
H    -0.264000000    -5.290000000    -1.075000000
C    -1.413000000    -1.948000000     0.303000000
H    -1.962000000    -2.678000000     0.892000000
C    -0.229000000    -1.306000000     0.767000000
H     0.250000000    -1.590000000     1.700000000
C     0.148000000    -0.168000000     0.049000000
C     1.240000000     0.805000000     0.539000000
H     1.900000000     1.113000000    -0.275000000
H     0.772000000     1.758000000     0.795000000
H     1.797000000     0.411000000     1.391000000
C    -0.484000000     0.288000000    -1.093000000
H    -0.098000000     1.197000000    -1.549000000
C    -1.590000000    -0.424000000    -1.560000000
H    -2.123000000    -0.098000000    -2.449000000
C    -2.077000000    -1.501000000    -0.890000000
C    -3.299000000    -2.147000000    -1.477000000
O    -3.969000000    -1.500000000    -2.242000000
O    -3.685000000    -3.150000000    -0.965000000
O    -6.378000000    -4.426000000    -0.973000000
H    -5.888000000    -5.218000000    -0.751000000
H    -5.806000000    -3.953000000    -1.578000000
O    -7.746000000    -4.156000000     1.451000000
H    -7.334000000    -4.055000000     0.593000000
H    -8.650000000    -3.869000000     1.318000000
O    -7.838000000    -5.070000000    -3.969000000
H    -7.450000000    -5.294000000    -3.123000000
H    -7.208000000    -4.471000000    -4.370000000
O    -6.399000000    -2.031000000     3.703000000
H    -6.548000000    -2.977000000     3.700000000
H    -5.891000000    -1.867000000     2.909000000
O    -1.687000000    -8.134000000    -0.768000000
H    -2.093000000    -8.355000000    -1.606000000
H    -1.945000000    -7.226000000    -0.609000000
O    -6.397000000    -1.425000000    -3.053000000
H    -5.504000000    -1.454000000    -2.710000000
H    -6.288000000    -1.285000000    -3.994000000
O    -3.872000000    -6.369000000    -4.268000000
H    -4.063000000    -6.569000000    -5.184000000
H    -4.084000000    -5.440000000    -4.176000000
O    -5.049000000    -6.547000000     0.062000000
H    -5.086000000    -6.939000000     0.934000000
H    -4.117000000    -6.543000000    -0.159000000
O    -6.798000000    -0.663000000    -5.718000000
H    -6.816000000    -1.554000000    -6.070000000
H    -6.882000000    -0.100000000    -6.487000000
O    -6.810000000    -3.663000000    -6.060000000
H    -5.908000000    -3.398000000    -6.238000000
H    -6.932000000    -4.460000000    -6.576000000
O    -5.540000000    -1.478000000     0.996000000
H    -6.214000000    -1.232000000     0.362000000
H    -5.041000000    -2.168000000     0.558000000
O    -7.663000000    -0.693000000    -0.717000000
H    -8.441000000    -1.234000000    -0.855000000
H    -7.148000000    -0.805000000    -1.516000000
O    -8.175000000     1.277000000    -4.357000000
H    -8.958000000     1.005000000    -4.836000000
H    -7.546000000     0.572000000    -4.506000000
O    -2.879000000    -6.710000000     2.660000000
H    -3.080000000    -5.786000000     2.507000000
H    -3.706000000    -7.089000000     2.957000000
O    -4.884000000    -3.817000000    -3.842000000
H    -4.369000000    -3.419000000    -3.140000000
H    -5.288000000    -3.075000000    -4.292000000
O    -7.883000000     0.164000000     2.511000000
H    -7.442000000    -0.421000000     3.128000000
H    -7.571000000    -0.115000000     1.651000000
O    -8.958000000    -2.210000000    -2.645000000
H    -8.007000000    -2.098000000    -2.667000000
H    -9.197000000    -2.401000000    -3.552000000
O    -4.017000000    -4.224000000     1.655000000
H    -4.961000000    -4.082000000     1.723000000
H    -3.786000000    -3.890000000     0.788000000
O    -2.685000000    -5.558000000    -1.222000000
H    -3.018000000    -4.670000000    -1.089000000
H    -2.776000000    -5.709000000    -2.163000000
