218
-1467.88051
C    -2.528000000     1.804000000     3.660000000
H    -2.720000000     2.502000000     2.850000000
C    -1.254000000     1.490000000     4.144000000
C    -1.075000000     0.444000000     5.020000000
H    -0.101000000     0.170000000     5.416000000
C    -0.031000000     2.198000000     3.510000000
O    -0.324000000     3.579000000     3.216000000
H     0.128000000     1.813000000     2.491000000
O     1.110000000     2.143000000     4.331000000
C     2.265000000     1.831000000     3.775000000
C     2.553000000     0.453000000     3.825000000
H     1.976000000    -0.316000000     4.333000000
C     3.564000000     0.014000000     2.976000000
O     3.664000000    -1.347000000     2.941000000
C     4.396000000     0.800000000     2.271000000
C     5.442000000     0.219000000     1.295000000
H     6.289000000     0.905000000     1.223000000
C     4.821000000    -0.157000000     0.004000000
C     4.954000000     0.725000000    -1.091000000
H     5.336000000     1.734000000    -0.961000000
H     5.935000000    -0.620000000     1.791000000
C     4.000000000     2.170000000     2.151000000
H     4.579000000     2.684000000     1.388000000
C     2.893000000     2.704000000     2.907000000
C     2.446000000     4.132000000     2.654000000
H     3.306000000     4.657000000     2.232000000
H     2.166000000     4.471000000     3.654000000
C     1.313000000     4.241000000     1.668000000
C     1.737000000     4.594000000     0.384000000
H     2.766000000     4.686000000     0.048000000
C    -0.021000000     4.013000000     1.966000000
C    -1.030000000     4.258000000     1.034000000
H    -2.070000000     4.208000000     1.349000000
C    -0.612000000     4.599000000    -0.271000000
O    -1.658000000     4.544000000    -1.207000000
C    -1.775000000     3.373000000    -1.984000000
C    -3.259000000     2.989000000    -2.100000000
C    -3.595000000     2.166000000    -3.103000000
H    -2.843000000     1.727000000    -3.755000000
C    -4.224000000     3.435000000    -1.143000000
H    -3.928000000     4.124000000    -0.356000000
O    -1.079000000     3.612000000    -3.188000000
H    -1.312000000     2.523000000    -1.462000000
C     0.746000000     4.720000000    -0.638000000
C     1.149000000     5.172000000    -2.112000000
H     2.092000000     5.722000000    -2.124000000
H     0.457000000     5.801000000    -2.675000000
C     1.293000000     3.850000000    -2.921000000
C     2.637000000     3.300000000    -2.966000000
H     3.419000000     3.829000000    -2.426000000
C     0.201000000     3.148000000    -3.396000000
C     0.452000000     1.988000000    -4.090000000
H    -0.339000000     1.517000000    -4.668000000
C     1.746000000     1.473000000    -4.189000000
O     1.820000000     0.201000000    -4.790000000
C     1.860000000    -0.869000000    -3.834000000
C     0.882000000    -1.992000000    -4.179000000
C    -0.199000000    -1.726000000    -4.925000000
H    -0.432000000    -0.698000000    -5.191000000
C     1.207000000    -3.266000000    -3.848000000
H     2.078000000    -3.455000000    -3.224000000
O     3.219000000    -1.229000000    -3.665000000
H     1.510000000    -0.405000000    -2.900000000
C     2.822000000     2.082000000    -3.584000000
C     4.201000000     1.437000000    -3.449000000
H     4.959000000     2.207000000    -3.287000000
H     4.453000000     1.036000000    -4.433000000
C     4.312000000     0.382000000    -2.336000000
C     3.756000000    -0.882000000    -2.467000000
C     3.758000000    -1.837000000    -1.440000000
H     3.374000000    -2.836000000    -1.632000000
C     4.169000000    -1.423000000    -0.193000000
O     4.084000000    -2.326000000     0.877000000
C     3.023000000    -2.020000000     1.793000000
H     2.243000000    -1.442000000     1.275000000
C     2.332000000    -3.257000000     2.263000000
C     1.957000000    -3.529000000     3.597000000
H     2.187000000    -2.774000000     4.344000000
C     1.996000000    -4.208000000     1.314000000
H     2.239000000    -3.894000000     0.302000000
C     1.388000000    -5.398000000     1.593000000
O     1.151000000    -6.392000000     0.662000000
C     1.083000000    -5.680000000     2.930000000
H     0.645000000    -6.652000000     3.140000000
C     1.271000000    -4.730000000     3.923000000
O     0.711000000    -4.970000000     5.188000000
C     0.458000000    -3.886000000     6.086000000
C    -0.570000000    -3.074000000     5.799000000
H    -1.286000000    -3.371000000     5.037000000
C     1.260000000    -3.607000000     7.172000000
H     2.014000000    -4.365000000     7.367000000
C     1.009000000    -2.508000000     8.030000000
H     1.615000000    -2.301000000     8.908000000
C    -0.103000000    -1.675000000     7.633000000
H    -0.341000000    -0.759000000     8.166000000
C    -0.947000000    -1.999000000     6.578000000
O    -2.117000000    -1.345000000     6.342000000
C    -2.190000000    -0.312000000     5.421000000
C    -3.450000000    -0.080000000     4.849000000
H    -4.325000000    -0.703000000     5.016000000
C    -3.607000000     0.945000000     3.971000000
O    -4.834000000     1.174000000     3.457000000
C    -5.382000000     2.303000000     2.891000000
C    -5.661000000     2.338000000     1.507000000
H    -5.330000000     1.496000000     0.905000000
C    -5.667000000     3.397000000     3.700000000
H    -5.512000000     3.228000000     4.762000000
C    -6.479000000     4.440000000     3.149000000
H    -6.814000000     5.230000000     3.817000000
C    -6.810000000     4.492000000     1.809000000
H    -7.486000000     5.253000000     1.428000000
C    -6.337000000     3.437000000     0.976000000
O    -6.530000000     3.395000000    -0.419000000
C    -5.519000000     2.961000000    -1.267000000
C    -5.919000000     2.089000000    -2.303000000
H    -6.921000000     1.697000000    -2.462000000
C    -4.928000000     1.659000000    -3.248000000
O    -5.317000000     0.797000000    -4.248000000
C    -4.555000000     0.267000000    -5.220000000
C    -3.789000000    -0.850000000    -4.987000000
H    -3.878000000    -1.449000000    -4.085000000
C    -4.454000000     0.959000000    -6.347000000
H    -5.117000000     1.808000000    -6.497000000
C    -3.627000000     0.589000000    -7.348000000
H    -3.639000000     1.143000000    -8.283000000
C    -2.789000000    -0.503000000    -7.198000000
H    -2.170000000    -0.889000000    -8.004000000
C    -2.950000000    -1.328000000    -6.050000000
O    -2.209000000    -2.552000000    -5.971000000
C    -1.057000000    -2.758000000    -5.274000000
C    -0.747000000    -4.084000000    -4.970000000
H    -1.436000000    -4.878000000    -5.246000000
C     0.474000000    -4.325000000    -4.325000000
O     0.813000000    -5.614000000    -4.004000000
C     1.568000000    -6.000000000    -2.945000000
C     2.916000000    -6.540000000    -3.071000000
H     3.504000000    -6.477000000    -3.983000000
C     3.544000000    -7.158000000    -1.980000000
H     4.521000000    -7.608000000    -2.132000000
C     2.849000000    -7.117000000    -0.734000000
H     3.325000000    -7.578000000     0.128000000
C     1.674000000    -6.417000000    -0.574000000
C     1.039000000    -5.876000000    -1.682000000
H     0.078000000    -5.380000000    -1.573000000
C    -0.920000000    -2.320000000     0.469000000
H    -0.901000000    -3.058000000     1.267000000
C    -0.149000000    -1.159000000     0.701000000
H     0.360000000    -1.079000000     1.658000000
C    -0.055000000    -0.165000000    -0.296000000
C     0.785000000     1.064000000    -0.208000000
H     1.788000000     0.798000000     0.134000000
H     0.994000000     1.495000000    -1.189000000
H     0.357000000     1.791000000     0.486000000
C    -0.715000000    -0.372000000    -1.496000000
H    -0.682000000     0.303000000    -2.347000000
C    -1.510000000    -1.440000000    -1.675000000
H    -2.135000000    -1.474000000    -2.564000000
C    -1.752000000    -2.431000000    -0.633000000
C    -2.667000000    -3.597000000    -0.635000000
O    -3.411000000    -3.746000000    -1.601000000
O    -2.792000000    -4.379000000     0.313000000
O    -1.951000000    -6.355000000     1.630000000
H    -2.143000000    -6.152000000     2.546000000
H    -2.231000000    -5.577000000     1.148000000
O    -5.603000000    -2.545000000    -2.114000000
H    -4.735000000    -2.926000000    -1.978000000
H    -5.812000000    -2.744000000    -3.026000000
O    -4.831000000    -1.680000000     2.382000000
H    -5.596000000    -1.194000000     2.691000000
H    -4.704000000    -1.378000000     1.483000000
O    -4.362000000    -0.632000000    -0.279000000
H    -3.475000000    -0.529000000    -0.623000000
H    -4.779000000    -1.255000000    -0.875000000
O    -6.145000000    -7.126000000    -2.880000000
H    -6.988000000    -6.792000000    -3.188000000
H    -5.508000000    -6.777000000    -3.503000000
O    -1.972000000    -8.091000000    -4.080000000
H    -1.721000000    -8.338000000    -3.189000000
H    -2.523000000    -7.317000000    -3.967000000
O    -8.265000000    -0.686000000    -3.551000000
H    -7.712000000    -1.375000000    -3.181000000
H    -8.037000000    -0.670000000    -4.481000000
O    -6.822000000    -4.186000000     1.612000000
H    -6.405000000    -4.894000000     1.120000000
H    -6.136000000    -3.526000000     1.711000000
O    -4.555000000    -5.940000000    -5.008000000
H    -4.704000000    -5.075000000    -5.388000000
H    -3.858000000    -5.803000000    -4.366000000
O    -7.868000000    -2.706000000    -0.893000000
H    -6.984000000    -2.780000000    -1.252000000
H    -7.775000000    -2.961000000     0.025000000
O    -4.836000000    -3.471000000     5.926000000
H    -4.280000000    -4.124000000     6.351000000
H    -4.878000000    -3.750000000     5.012000000
O    -6.372000000    -3.196000000    -4.595000000
H    -6.033000000    -3.029000000    -5.475000000
H    -7.322000000    -3.124000000    -4.687000000
O    -2.993000000    -5.995000000    -2.663000000
H    -3.056000000    -5.126000000    -2.265000000
H    -2.657000000    -6.555000000    -1.963000000
O    -5.868000000    -7.893000000     1.515000000
H    -5.497000000    -7.072000000     1.192000000
H    -6.126000000    -8.367000000     0.725000000
O    -3.488000000    -4.296000000     2.789000000
H    -3.201000000    -4.519000000     1.904000000
H    -3.985000000    -3.485000000     2.683000000
O    -2.326000000    -5.865000000     4.715000000
H    -1.406000000    -5.615000000     4.637000000
H    -2.794000000    -5.233000000     4.170000000
O    -3.357000000   -10.240000000    -1.048000000
H    -3.572000000   -10.755000000    -0.271000000
H    -2.693000000    -9.620000000    -0.749000000
O    -5.403000000    -5.741000000    -0.183000000
H    -5.802000000    -5.866000000    -1.043000000
H    -4.548000000    -5.352000000    -0.370000000
O    -1.462000000    -8.207000000    -0.406000000
H    -0.521000000    -8.311000000    -0.547000000
H    -1.528000000    -7.641000000     0.363000000
