218
-1492.37654
C    -1.945000000     1.500000000     4.567000000
H    -2.261000000     2.487000000     4.240000000
C    -0.645000000     1.023000000     4.368000000
C    -0.360000000    -0.361000000     4.636000000
H     0.604000000    -0.804000000     4.399000000
C     0.352000000     1.929000000     3.697000000
O    -0.055000000     3.389000000     3.664000000
H     0.431000000     1.535000000     2.673000000
O     1.607000000     1.723000000     4.379000000
C     2.669000000     1.561000000     3.519000000
C     3.229000000     0.275000000     3.360000000
H     2.828000000    -0.552000000     3.939000000
C     4.200000000     0.021000000     2.379000000
O     4.605000000    -1.262000000     2.170000000
C     4.517000000     1.037000000     1.444000000
C     5.512000000     0.758000000     0.290000000
H     6.047000000     1.695000000     0.120000000
C     4.812000000     0.287000000    -0.946000000
C     4.549000000     1.156000000    -1.977000000
H     4.949000000     2.162000000    -1.874000000
H     6.273000000     0.061000000     0.647000000
C     3.944000000     2.309000000     1.610000000
H     4.184000000     3.051000000     0.853000000
C     3.128000000     2.615000000     2.737000000
C     2.618000000     4.034000000     2.826000000
H     3.455000000     4.721000000     2.682000000
H     2.257000000     4.162000000     3.848000000
C     1.412000000     4.239000000     1.941000000
C     1.595000000     4.829000000     0.671000000
H     2.518000000     5.227000000     0.256000000
C     0.134000000     4.029000000     2.446000000
C    -0.995000000     4.259000000     1.684000000
H    -2.005000000     4.085000000     2.047000000
C    -0.787000000     4.585000000     0.323000000
O    -1.899000000     4.496000000    -0.492000000
C    -2.033000000     3.295000000    -1.350000000
C    -3.505000000     2.776000000    -1.398000000
C    -4.139000000     2.222000000    -2.506000000
H    -3.560000000     2.161000000    -3.424000000
C    -4.252000000     2.808000000    -0.225000000
H    -3.837000000     3.390000000     0.594000000
O    -1.672000000     3.718000000    -2.682000000
H    -1.278000000     2.555000000    -1.046000000
C     0.472000000     4.834000000    -0.175000000
C     0.638000000     5.302000000    -1.574000000
H     1.517000000     5.951000000    -1.560000000
H    -0.229000000     5.883000000    -1.893000000
C     0.777000000     4.166000000    -2.543000000
C     2.063000000     3.633000000    -2.956000000
H     2.989000000     4.056000000    -2.575000000
C    -0.382000000     3.524000000    -3.097000000
C    -0.238000000     2.491000000    -3.979000000
H    -1.124000000     2.056000000    -4.434000000
C     1.008000000     1.990000000    -4.268000000
O     1.030000000     0.695000000    -4.778000000
C     1.116000000    -0.438000000    -3.962000000
C     0.035000000    -1.518000000    -4.289000000
C    -1.076000000    -1.297000000    -5.119000000
H    -1.232000000    -0.408000000    -5.724000000
C     0.165000000    -2.781000000    -3.700000000
H     0.988000000    -2.941000000    -3.009000000
O     2.447000000    -1.009000000    -4.034000000
H     0.988000000    -0.197000000    -2.896000000
C     2.140000000     2.521000000    -3.807000000
C     3.492000000     1.803000000    -4.089000000
H     4.327000000     2.505000000    -4.139000000
H     3.371000000     1.335000000    -5.068000000
C     3.716000000     0.761000000    -2.995000000
C     3.291000000    -0.553000000    -3.057000000
C     3.615000000    -1.426000000    -2.052000000
H     3.398000000    -2.489000000    -2.113000000
C     4.318000000    -1.001000000    -0.960000000
O     4.748000000    -1.978000000    -0.059000000
C     3.936000000    -1.973000000     1.138000000
H     3.012000000    -1.415000000     0.929000000
C     3.479000000    -3.400000000     1.542000000
C     3.247000000    -3.666000000     2.892000000
H     3.556000000    -2.950000000     3.649000000
C     3.106000000    -4.256000000     0.579000000
H     3.082000000    -4.044000000    -0.487000000
C     2.641000000    -5.546000000     0.939000000
O     2.469000000    -6.627000000     0.056000000
C     2.471000000    -5.874000000     2.277000000
H     2.117000000    -6.841000000     2.628000000
C     2.874000000    -4.918000000     3.278000000
O     2.851000000    -5.089000000     4.644000000
C     2.040000000    -4.338000000     5.459000000
C     0.860000000    -3.790000000     5.021000000
H     0.492000000    -4.030000000     4.026000000
C     2.506000000    -4.052000000     6.759000000
H     3.404000000    -4.500000000     7.177000000
C     1.756000000    -3.203000000     7.574000000
H     2.122000000    -3.075000000     8.589000000
C     0.585000000    -2.549000000     7.107000000
H     0.024000000    -1.782000000     7.635000000
C     0.196000000    -2.987000000     5.825000000
O    -1.097000000    -2.584000000     5.387000000
C    -1.376000000    -1.284000000     5.034000000
C    -2.706000000    -0.759000000     5.158000000
H    -3.513000000    -1.423000000     5.458000000
C    -2.979000000     0.577000000     4.896000000
O    -4.241000000     1.032000000     5.107000000
C    -4.783000000     2.043000000     4.270000000
C    -5.218000000     1.758000000     2.996000000
H    -5.160000000     0.703000000     2.743000000
C    -4.754000000     3.381000000     4.692000000
H    -4.444000000     3.568000000     5.717000000
C    -5.163000000     4.441000000     3.897000000
H    -5.026000000     5.476000000     4.199000000
C    -5.703000000     4.155000000     2.618000000
H    -5.958000000     4.986000000     1.965000000
C    -5.845000000     2.765000000     2.228000000
O    -6.315000000     2.419000000     0.973000000
C    -5.548000000     2.253000000    -0.168000000
C    -6.091000000     1.598000000    -1.301000000
H    -7.006000000     1.027000000    -1.169000000
C    -5.445000000     1.679000000    -2.524000000
O    -6.052000000     1.078000000    -3.589000000
C    -5.369000000     0.660000000    -4.694000000
C    -4.580000000    -0.511000000    -4.690000000
H    -4.479000000    -1.102000000    -3.784000000
C    -5.560000000     1.355000000    -5.859000000
H    -6.134000000     2.278000000    -5.875000000
C    -4.869000000     0.954000000    -7.026000000
H    -4.926000000     1.572000000    -7.919000000
C    -4.054000000    -0.201000000    -6.968000000
H    -3.465000000    -0.486000000    -7.835000000
C    -3.948000000    -0.977000000    -5.879000000
O    -3.236000000    -2.166000000    -5.884000000
C    -2.104000000    -2.308000000    -5.200000000
C    -2.014000000    -3.485000000    -4.515000000
H    -2.805000000    -4.223000000    -4.624000000
C    -0.857000000    -3.721000000    -3.730000000
O    -0.872000000    -4.795000000    -2.882000000
C     0.299000000    -5.620000000    -2.678000000
C     0.873000000    -6.344000000    -3.754000000
H     0.429000000    -6.451000000    -4.740000000
C     1.996000000    -7.142000000    -3.552000000
H     2.483000000    -7.784000000    -4.282000000
C     2.562000000    -7.168000000    -2.255000000
H     3.501000000    -7.698000000    -2.119000000
C     1.967000000    -6.487000000    -1.232000000
C     0.843000000    -5.730000000    -1.444000000
H     0.412000000    -5.131000000    -0.645000000
C    -1.174000000    -2.789000000     0.817000000
H    -0.900000000    -3.460000000     1.626000000
C    -0.357000000    -1.656000000     0.801000000
H     0.519000000    -1.534000000     1.433000000
C    -0.513000000    -0.699000000    -0.222000000
C     0.567000000     0.325000000    -0.336000000
H     1.557000000    -0.130000000    -0.406000000
H     0.404000000     1.078000000    -1.110000000
H     0.639000000     0.894000000     0.593000000
C    -1.560000000    -0.804000000    -1.110000000
H    -1.651000000    -0.073000000    -1.909000000
C    -2.427000000    -1.882000000    -0.982000000
H    -3.213000000    -2.036000000    -1.716000000
C    -2.224000000    -2.904000000    -0.080000000
C    -3.193000000    -4.074000000     0.006000000
O    -4.096000000    -4.193000000    -0.760000000
O    -2.963000000    -4.893000000     0.903000000
O    -7.227000000    -4.263000000    -0.304000000
H    -6.338000000    -3.993000000    -0.073000000
H    -7.570000000    -4.664000000     0.495000000
O    -4.236000000    -5.633000000    -3.088000000
H    -4.247000000    -5.041000000    -2.335000000
H    -3.487000000    -6.208000000    -2.929000000
O    -5.386000000    -2.417000000     3.087000000
H    -6.001000000    -1.912000000     3.619000000
H    -5.669000000    -3.326000000     3.191000000
O    -4.476000000    -1.165000000     0.854000000
H    -4.715000000    -1.621000000     1.661000000
H    -3.533000000    -1.016000000     0.934000000
O    -8.490000000    -3.834000000    -2.860000000
H    -8.019000000    -3.992000000    -2.042000000
H    -8.410000000    -2.891000000    -3.005000000
O    -1.026000000    -9.947000000    -0.385000000
H    -1.221000000    -9.231000000    -0.989000000
H    -1.669000000    -9.850000000     0.318000000
O    -4.531000000    -8.492000000     2.458000000
H    -5.273000000    -8.441000000     3.061000000
H    -4.572000000    -7.677000000     1.958000000
O    -6.128000000    -4.673000000    -4.683000000
H    -6.749000000    -4.255000000    -4.087000000
H    -5.686000000    -5.331000000    -4.146000000
O    -5.692000000    -1.907000000    -1.545000000
H    -5.397000000    -1.480000000    -0.741000000
H    -5.162000000    -2.702000000    -1.602000000
O    -3.273000000    -6.671000000     5.167000000
H    -2.877000000    -6.449000000     6.010000000
H    -3.306000000    -5.840000000     4.692000000
O    -7.764000000    -1.275000000    -3.350000000
H    -7.654000000    -0.615000000    -4.034000000
H    -6.871000000    -1.525000000    -3.111000000
O    -0.815000000    -7.844000000     2.796000000
H    -0.887000000    -7.579000000     3.713000000
H    -1.154000000    -8.739000000     2.778000000
O    -5.019000000    -8.698000000    -1.747000000
H    -4.253000000    -8.156000000    -1.933000000
H    -5.750000000    -8.223000000    -2.142000000
O    -6.730000000    -4.705000000     3.213000000
H    -6.354000000    -5.148000000     2.452000000
H    -6.738000000    -5.372000000     3.899000000
O    -8.405000000    -1.087000000    -0.278000000
H    -8.156000000    -1.079000000    -1.202000000
H    -7.705000000    -1.576000000     0.155000000
O    -5.075000000    -6.117000000     1.287000000
H    -5.463000000    -6.062000000     0.413000000
H    -4.180000000    -5.798000000     1.173000000
O    -3.373000000    -4.395000000     3.627000000
H    -3.039000000    -4.454000000     2.732000000
H    -3.739000000    -3.513000000     3.688000000
O    -1.330000000    -6.896000000     0.080000000
H    -0.863000000    -7.235000000     0.844000000
H    -1.850000000    -6.168000000     0.421000000
O    -2.509000000    -7.546000000    -2.358000000
H    -1.711000000    -7.582000000    -2.885000000
H    -2.268000000    -7.022000000    -1.594000000
