218
-1461.65000
C    -2.740000000     1.200000000     3.697000000
H    -2.870000000     1.972000000     2.943000000
C    -1.486000000     0.908000000     4.250000000
C    -1.405000000    -0.215000000     5.107000000
H    -0.432000000    -0.414000000     5.548000000
C    -0.255000000     1.733000000     3.989000000
O    -0.562000000     3.135000000     4.016000000
H     0.009000000     1.451000000     2.959000000
O     0.826000000     1.453000000     4.806000000
C     1.941000000     1.087000000     4.097000000
C     2.247000000    -0.277000000     3.902000000
H     1.559000000    -1.026000000     4.285000000
C     3.374000000    -0.607000000     3.130000000
O     3.603000000    -1.947000000     2.741000000
C     4.196000000     0.433000000     2.609000000
C     5.276000000     0.050000000     1.634000000
H     5.968000000     0.893000000     1.671000000
C     4.812000000    -0.160000000     0.206000000
C     4.760000000     0.872000000    -0.745000000
H     4.924000000     1.846000000    -0.290000000
H     5.794000000    -0.802000000     2.081000000
C     3.883000000     1.743000000     2.804000000
H     4.590000000     2.445000000     2.370000000
C     2.686000000     2.124000000     3.460000000
C     2.325000000     3.607000000     3.682000000
H     3.224000000     4.217000000     3.574000000
H     1.920000000     3.787000000     4.680000000
C     1.210000000     4.122000000     2.748000000
C     1.647000000     4.715000000     1.597000000
H     2.701000000     4.780000000     1.343000000
C    -0.153000000     3.925000000     2.972000000
C    -1.028000000     4.232000000     1.904000000
H    -2.058000000     3.887000000     1.891000000
C    -0.593000000     4.816000000     0.750000000
O    -1.518000000     4.996000000    -0.299000000
C    -1.578000000     4.042000000    -1.383000000
C    -2.998000000     3.632000000    -1.733000000
C    -3.212000000     3.038000000    -3.014000000
H    -2.453000000     2.955000000    -3.787000000
C    -4.123000000     3.724000000    -0.859000000
H    -4.059000000     4.147000000     0.140000000
O    -0.817000000     4.448000000    -2.518000000
H    -1.121000000     3.082000000    -1.101000000
C     0.809000000     4.937000000     0.533000000
C     1.383000000     5.468000000    -0.825000000
H     2.262000000     6.075000000    -0.599000000
H     0.659000000     6.148000000    -1.278000000
C     1.550000000     4.340000000    -1.831000000
C     2.832000000     3.697000000    -1.942000000
H     3.682000000     3.978000000    -1.326000000
C     0.463000000     3.911000000    -2.585000000
C     0.603000000     2.815000000    -3.460000000
H    -0.236000000     2.496000000    -4.073000000
C     1.822000000     2.096000000    -3.505000000
O     1.746000000     0.909000000    -4.264000000
C     1.763000000    -0.363000000    -3.587000000
C     0.799000000    -1.364000000    -4.207000000
C    -0.302000000    -0.962000000    -4.934000000
H    -0.558000000     0.094000000    -4.953000000
C     1.161000000    -2.742000000    -4.153000000
H     2.025000000    -3.061000000    -3.577000000
O     3.094000000    -0.856000000    -3.613000000
H     1.380000000    -0.217000000    -2.567000000
C     2.940000000     2.620000000    -2.835000000
C     4.241000000     1.862000000    -2.985000000
H     5.015000000     2.598000000    -2.754000000
H     4.349000000     1.419000000    -3.977000000
C     4.256000000     0.686000000    -2.057000000
C     3.777000000    -0.587000000    -2.381000000
C     3.828000000    -1.604000000    -1.470000000
H     3.387000000    -2.568000000    -1.709000000
C     4.373000000    -1.430000000    -0.238000000
O     4.281000000    -2.441000000     0.649000000
C     3.138000000    -2.338000000     1.477000000
H     2.540000000    -1.493000000     1.106000000
C     2.294000000    -3.594000000     1.524000000
C     1.666000000    -3.898000000     2.760000000
H     1.809000000    -3.232000000     3.606000000
C     2.226000000    -4.573000000     0.522000000
H     2.681000000    -4.305000000    -0.428000000
C     1.578000000    -5.767000000     0.701000000
O     1.412000000    -6.716000000    -0.343000000
C     1.050000000    -6.134000000     1.896000000
H     0.456000000    -7.037000000     2.010000000
C     0.996000000    -5.141000000     2.870000000
O     0.361000000    -5.415000000     4.029000000
C     0.104000000    -4.618000000     5.079000000
C    -1.081000000    -3.818000000     5.162000000
H    -1.787000000    -3.897000000     4.339000000
C     1.044000000    -4.495000000     6.117000000
H     2.013000000    -4.970000000     5.983000000
C     0.854000000    -3.714000000     7.243000000
H     1.624000000    -3.680000000     8.010000000
C    -0.318000000    -2.916000000     7.357000000
H    -0.487000000    -2.239000000     8.191000000
C    -1.230000000    -2.923000000     6.255000000
O    -2.378000000    -2.120000000     6.195000000
C    -2.496000000    -1.039000000     5.386000000
C    -3.742000000    -0.775000000     4.817000000
H    -4.598000000    -1.390000000     5.081000000
C    -3.831000000     0.315000000     3.984000000
O    -5.021000000     0.448000000     3.361000000
C    -5.518000000     1.628000000     2.920000000
C    -5.665000000     1.835000000     1.483000000
H    -5.332000000     1.036000000     0.826000000
C    -6.047000000     2.558000000     3.840000000
H    -5.930000000     2.435000000     4.914000000
C    -6.706000000     3.754000000     3.352000000
H    -7.197000000     4.474000000     4.002000000
C    -6.683000000     3.994000000     1.974000000
H    -7.037000000     4.956000000     1.611000000
C    -6.216000000     3.036000000     1.067000000
O    -6.448000000     3.252000000    -0.343000000
C    -5.394000000     3.227000000    -1.258000000
C    -5.567000000     2.711000000    -2.497000000
H    -6.526000000     2.350000000    -2.861000000
C    -4.470000000     2.511000000    -3.365000000
O    -4.771000000     2.044000000    -4.616000000
C    -3.887000000     1.535000000    -5.545000000
C    -3.287000000     0.283000000    -5.352000000
H    -3.446000000    -0.190000000    -4.386000000
C    -3.553000000     2.245000000    -6.710000000
H    -3.973000000     3.233000000    -6.877000000
C    -2.805000000     1.605000000    -7.694000000
H    -2.452000000     2.208000000    -8.526000000
C    -2.312000000     0.301000000    -7.528000000
H    -1.684000000    -0.144000000    -8.295000000
C    -2.588000000    -0.343000000    -6.318000000
O    -2.249000000    -1.579000000    -6.147000000
C    -1.058000000    -1.909000000    -5.558000000
C    -0.699000000    -3.229000000    -5.569000000
H    -1.265000000    -3.956000000    -6.146000000
C     0.409000000    -3.717000000    -4.876000000
O     0.637000000    -5.087000000    -4.826000000
C     1.494000000    -5.749000000    -3.872000000
C     2.548000000    -6.624000000    -4.289000000
H     2.888000000    -6.699000000    -5.318000000
C     3.249000000    -7.455000000    -3.393000000
H     3.977000000    -8.176000000    -3.755000000
C     2.800000000    -7.430000000    -2.031000000
H     3.222000000    -8.119000000    -1.303000000
C     1.796000000    -6.553000000    -1.601000000
C     1.114000000    -5.743000000    -2.543000000
H     0.348000000    -5.048000000    -2.211000000
C    -1.434000000    -1.926000000     0.689000000
H    -1.533000000    -2.844000000     1.263000000
C    -0.383000000    -1.031000000     0.981000000
H     0.187000000    -1.040000000     1.907000000
C    -0.176000000     0.040000000     0.038000000
C     1.022000000     0.979000000     0.396000000
H     1.525000000     0.733000000     1.334000000
H     1.756000000     1.021000000    -0.411000000
H     0.702000000     2.020000000     0.471000000
C    -0.900000000     0.103000000    -1.095000000
H    -0.683000000     0.908000000    -1.792000000
C    -1.921000000    -0.793000000    -1.343000000
H    -2.518000000    -0.695000000    -2.246000000
C    -2.190000000    -1.884000000    -0.505000000
C    -3.352000000    -2.745000000    -0.692000000
O    -4.321000000    -2.447000000    -1.303000000
O    -3.371000000    -3.876000000    -0.192000000
O    -5.187000000    -4.578000000    -2.732000000
H    -4.398000000    -5.076000000    -2.945000000
H    -4.877000000    -3.865000000    -2.174000000
O    -2.888000000    -6.110000000    -3.376000000
H    -2.487000000    -6.637000000    -2.684000000
H    -2.204000000    -6.027000000    -4.041000000
O    -5.018000000    -4.907000000    -5.821000000
H    -4.971000000    -3.953000000    -5.882000000
H    -5.150000000    -5.081000000    -4.889000000
O    -6.484000000    -2.790000000     2.555000000
H    -6.430000000    -2.094000000     3.211000000
H    -6.899000000    -3.520000000     3.015000000
O    -6.743000000    -2.188000000     0.037000000
H    -6.419000000    -2.358000000     0.922000000
H    -5.961000000    -2.213000000    -0.514000000
O    -8.106000000    -2.880000000    -2.405000000
H    -7.401000000    -2.583000000    -2.980000000
H    -7.862000000    -2.553000000    -1.539000000
O    -6.713000000    -6.984000000    -2.034000000
H    -6.114000000    -6.959000000    -1.287000000
H    -6.765000000    -6.075000000    -2.329000000
O    -9.835000000    -3.204000000     0.950000000
H   -10.771000000    -3.005000000     0.945000000
H    -9.413000000    -2.366000000     1.141000000
O    -5.688000000    -8.193000000     1.960000000
H    -5.353000000    -7.404000000     2.388000000
H    -5.362000000    -8.135000000     1.062000000
O    -4.997000000    -2.145000000    -6.269000000
H    -5.264000000    -1.928000000    -5.376000000
H    -4.100000000    -1.819000000    -6.337000000
O    -5.402000000    -1.604000000    -3.818000000
H    -5.486000000    -0.756000000    -3.380000000
H    -4.891000000    -2.137000000    -3.209000000
O    -4.714000000    -6.189000000     3.416000000
H    -4.331000000    -5.320000000     3.296000000
H    -5.300000000    -6.091000000     4.167000000
O    -4.406000000    -8.722000000    -3.475000000
H    -4.397000000    -7.862000000    -3.054000000
H    -4.592000000    -8.536000000    -4.395000000
O    -8.709000000    -0.558000000     1.331000000
H    -8.640000000     0.370000000     1.104000000
H    -7.970000000    -0.969000000     0.883000000
O    -8.404000000    -5.321000000     1.376000000
H    -8.999000000    -4.613000000     1.127000000
H    -7.534000000    -4.924000000     1.348000000
O    -4.775000000    -6.189000000    -0.383000000
H    -4.445000000    -5.292000000    -0.328000000
H    -3.991000000    -6.736000000    -0.333000000
O    -3.695000000    -3.569000000     2.479000000
H    -3.633000000    -3.457000000     1.531000000
H    -4.263000000    -2.855000000     2.769000000
O    -1.780000000    -6.369000000     0.351000000
H    -1.961000000    -6.730000000     1.219000000
H    -2.201000000    -5.509000000     0.356000000
O    -1.481000000    -8.137000000    -1.661000000
H    -1.485000000    -7.474000000    -0.971000000
H    -0.580000000    -8.459000000    -1.680000000
