218
-1486.77649
C    -3.143000000     2.139000000     3.367000000
H    -3.074000000     2.925000000     2.619000000
C    -1.940000000     1.796000000     4.017000000
C    -1.881000000     0.739000000     4.940000000
H    -0.934000000     0.421000000     5.369000000
C    -0.619000000     2.332000000     3.515000000
O    -0.676000000     3.821000000     3.394000000
H    -0.391000000     2.025000000     2.484000000
O     0.471000000     2.064000000     4.484000000
C     1.695000000     1.673000000     3.954000000
C     2.023000000     0.341000000     3.956000000
H     1.310000000    -0.282000000     4.490000000
C     3.134000000    -0.174000000     3.309000000
O     3.258000000    -1.570000000     3.158000000
C     4.018000000     0.724000000     2.660000000
C     5.212000000     0.115000000     1.813000000
H     5.947000000     0.915000000     1.706000000
C     4.832000000    -0.313000000     0.430000000
C     4.955000000     0.578000000    -0.671000000
H     5.400000000     1.550000000    -0.476000000
H     5.706000000    -0.690000000     2.360000000
C     3.742000000     2.081000000     2.748000000
H     4.447000000     2.733000000     2.238000000
C     2.601000000     2.503000000     3.263000000
C     2.324000000     3.982000000     3.164000000
H     3.258000000     4.543000000     3.097000000
H     1.841000000     4.262000000     4.103000000
C     1.346000000     4.307000000     2.063000000
C     1.838000000     4.545000000     0.778000000
H     2.909000000     4.466000000     0.609000000
C    -0.081000000     4.286000000     2.224000000
C    -0.948000000     4.504000000     1.085000000
H    -2.014000000     4.341000000     1.223000000
C    -0.404000000     4.733000000    -0.163000000
O    -1.273000000     4.765000000    -1.144000000
C    -1.293000000     3.554000000    -1.993000000
C    -2.658000000     3.049000000    -2.371000000
C    -2.857000000     2.190000000    -3.457000000
H    -2.068000000     1.627000000    -3.948000000
C    -3.778000000     3.410000000    -1.604000000
H    -3.677000000     4.030000000    -0.718000000
O    -0.545000000     3.818000000    -3.172000000
H    -0.787000000     2.710000000    -1.503000000
C     0.964000000     4.859000000    -0.337000000
C     1.553000000     5.119000000    -1.753000000
H     2.534000000     5.597000000    -1.701000000
H     0.869000000     5.837000000    -2.209000000
C     1.737000000     3.781000000    -2.592000000
C     3.002000000     3.167000000    -2.668000000
H     3.804000000     3.608000000    -2.081000000
C     0.681000000     3.174000000    -3.265000000
C     0.878000000     2.001000000    -3.926000000
H    -0.013000000     1.624000000    -4.422000000
C     2.146000000     1.330000000    -3.994000000
O     2.203000000     0.093000000    -4.575000000
C     2.062000000    -1.036000000    -3.611000000
C     1.366000000    -2.234000000    -4.223000000
C     0.228000000    -2.000000000    -4.968000000
H    -0.145000000    -0.979000000    -5.007000000
C     1.766000000    -3.546000000    -3.904000000
H     2.701000000    -3.721000000    -3.378000000
O     3.406000000    -1.419000000    -3.327000000
H     1.448000000    -0.688000000    -2.767000000
C     3.236000000     1.927000000    -3.312000000
C     4.605000000     1.217000000    -3.111000000
H     5.416000000     1.914000000    -2.888000000
H     4.840000000     0.632000000    -4.002000000
C     4.506000000     0.262000000    -1.951000000
C     3.943000000    -1.008000000    -2.136000000
C     3.846000000    -1.921000000    -1.085000000
H     3.493000000    -2.912000000    -1.359000000
C     4.291000000    -1.608000000     0.188000000
O     3.936000000    -2.538000000     1.186000000
C     2.773000000    -2.186000000     1.922000000
H     2.090000000    -1.401000000     1.567000000
C     1.844000000    -3.375000000     2.227000000
C     1.083000000    -3.431000000     3.382000000
H     1.187000000    -2.745000000     4.219000000
C     1.758000000    -4.354000000     1.262000000
H     2.264000000    -4.293000000     0.302000000
C     0.845000000    -5.417000000     1.489000000
O     0.778000000    -6.536000000     0.693000000
C     0.283000000    -5.607000000     2.719000000
H    -0.316000000    -6.494000000     2.909000000
C     0.259000000    -4.527000000     3.648000000
O    -0.507000000    -4.709000000     4.763000000
C    -0.795000000    -3.674000000     5.686000000
C    -1.821000000    -2.692000000     5.528000000
H    -2.339000000    -2.658000000     4.573000000
C    -0.125000000    -3.770000000     6.917000000
H     0.488000000    -4.613000000     7.226000000
C    -0.386000000    -2.790000000     7.953000000
H     0.089000000    -2.881000000     8.926000000
C    -1.350000000    -1.851000000     7.707000000
H    -1.426000000    -1.211000000     8.583000000
C    -2.035000000    -1.734000000     6.547000000
O    -3.040000000    -0.816000000     6.343000000
C    -3.044000000     0.116000000     5.305000000
C    -4.293000000     0.413000000     4.695000000
H    -5.221000000    -0.123000000     4.874000000
C    -4.306000000     1.456000000     3.749000000
O    -5.500000000     1.564000000     3.170000000
C    -5.860000000     2.541000000     2.346000000
C    -5.779000000     2.398000000     0.976000000
H    -5.381000000     1.499000000     0.512000000
C    -6.220000000     3.797000000     2.901000000
H    -6.116000000     3.906000000     3.977000000
C    -6.414000000     4.903000000     2.108000000
H    -6.798000000     5.848000000     2.482000000
C    -6.479000000     4.664000000     0.707000000
H    -6.776000000     5.459000000     0.029000000
C    -6.123000000     3.451000000     0.149000000
O    -6.139000000     3.380000000    -1.225000000
C    -5.051000000     3.027000000    -1.964000000
C    -5.271000000     2.143000000    -3.029000000
H    -6.258000000     1.767000000    -3.283000000
C    -4.138000000     1.704000000    -3.682000000
O    -4.395000000     0.718000000    -4.643000000
C    -3.505000000     0.268000000    -5.560000000
C    -3.103000000    -1.045000000    -5.409000000
H    -3.532000000    -1.688000000    -4.645000000
C    -3.096000000     1.061000000    -6.584000000
H    -3.475000000     2.079000000    -6.617000000
C    -2.148000000     0.603000000    -7.453000000
H    -1.595000000     1.191000000    -8.181000000
C    -1.752000000    -0.707000000    -7.327000000
H    -1.058000000    -1.099000000    -8.067000000
C    -2.193000000    -1.567000000    -6.319000000
O    -1.682000000    -2.836000000    -6.181000000
C    -0.516000000    -3.077000000    -5.422000000
C    -0.114000000    -4.446000000    -5.109000000
H    -0.651000000    -5.325000000    -5.456000000
C     0.960000000    -4.648000000    -4.232000000
O     1.485000000    -5.838000000    -3.980000000
C     1.993000000    -6.214000000    -2.778000000
C     3.332000000    -6.406000000    -2.667000000
H     3.923000000    -6.050000000    -3.507000000
C     3.884000000    -6.757000000    -1.411000000
H     4.951000000    -6.748000000    -1.203000000
C     3.016000000    -7.066000000    -0.302000000
H     3.507000000    -7.397000000     0.610000000
C     1.633000000    -6.669000000    -0.387000000
C     1.130000000    -6.411000000    -1.647000000
H     0.066000000    -6.199000000    -1.701000000
C    -2.579000000    -1.151000000     1.604000000
H    -2.984000000    -1.756000000     2.412000000
C    -1.263000000    -0.714000000     1.543000000
H    -0.509000000    -1.032000000     2.258000000
C    -0.798000000    -0.021000000     0.374000000
C     0.673000000     0.422000000     0.260000000
H     1.051000000     1.024000000     1.089000000
H     1.363000000    -0.405000000     0.078000000
H     0.728000000     0.996000000    -0.667000000
C    -1.700000000     0.149000000    -0.657000000
H    -1.366000000     0.581000000    -1.597000000
C    -3.014000000    -0.159000000    -0.564000000
H    -3.731000000     0.066000000    -1.349000000
C    -3.494000000    -0.792000000     0.598000000
C    -4.984000000    -1.098000000     0.788000000
O    -5.787000000    -0.837000000    -0.112000000
O    -5.259000000    -1.677000000     1.811000000
O    -5.849000000    -4.851000000    -0.916000000
H    -5.869000000    -5.130000000    -0.001000000
H    -6.368000000    -4.047000000    -0.932000000
O    -7.312000000    -0.616000000     3.363000000
H    -6.581000000    -1.051000000     2.925000000
H    -7.206000000     0.310000000     3.144000000
O    -1.668000000    -3.430000000    -1.565000000
H    -2.443000000    -3.313000000    -2.113000000
H    -1.518000000    -2.569000000    -1.176000000
O    -5.921000000    -1.424000000    -3.446000000
H    -5.584000000    -0.663000000    -3.920000000
H    -6.514000000    -1.054000000    -2.791000000
O    -8.644000000    -4.351000000     2.396000000
H    -8.063000000    -4.952000000     2.862000000
H    -8.059000000    -3.837000000     1.839000000
O    -6.100000000    -2.498000000     5.715000000
H    -5.539000000    -2.728000000     4.974000000
H    -6.978000000    -2.763000000     5.442000000
O    -4.410000000    -3.760000000    -2.998000000
H    -4.738000000    -4.202000000    -2.215000000
H    -4.810000000    -2.891000000    -2.967000000
O    -9.712000000    -0.690000000     1.781000000
H   -10.385000000    -0.755000000     2.458000000
H    -9.533000000     0.248000000     1.710000000
O    -9.640000000    -4.178000000    -0.635000000
H    -9.983000000    -4.810000000    -0.003000000
H    -9.044000000    -3.629000000    -0.126000000
O    -3.598000000    -5.491000000     1.570000000
H    -3.058000000    -5.484000000     0.779000000
H    -3.158000000    -6.107000000     2.155000000
O    -9.206000000     2.668000000    -2.534000000
H    -9.901000000     2.065000000    -2.799000000
H    -8.714000000     2.187000000    -1.868000000
O    -6.413000000    -6.492000000     1.387000000
H    -6.405000000    -7.446000000     1.312000000
H    -5.518000000    -6.264000000     1.637000000
O    -7.761000000    -2.379000000     0.787000000
H    -8.483000000    -1.836000000     1.105000000
H    -7.070000000    -1.755000000     0.567000000
O    -4.457000000    -5.486000000     5.309000000
H    -4.280000000    -4.864000000     4.603000000
H    -5.312000000    -5.224000000     5.649000000
O    -8.342000000     0.738000000    -4.700000000
H    -8.290000000     0.504000000    -3.773000000
H    -8.687000000    -0.047000000    -5.126000000
O    -7.551000000     0.044000000    -1.902000000
H    -8.292000000    -0.456000000    -1.559000000
H    -6.796000000    -0.279000000    -1.411000000
O    -8.651000000    -2.461000000     4.810000000
H    -8.232000000    -1.627000000     4.597000000
H    -8.848000000    -2.855000000     3.960000000
O    -4.788000000    -3.780000000     3.168000000
H    -4.368000000    -4.231000000     2.436000000
H    -5.099000000    -2.955000000     2.796000000
O    -2.233000000    -5.930000000    -0.640000000
H    -2.582000000    -6.484000000    -1.339000000
H    -1.771000000    -5.229000000    -1.099000000
