218
-1464.60793
C    -2.496000000     2.354000000     2.812000000
H    -2.550000000     2.613000000     1.758000000
C    -1.232000000     2.494000000     3.466000000
C    -1.084000000     2.052000000     4.764000000
H    -0.122000000     2.176000000     5.255000000
C    -0.036000000     3.048000000     2.708000000
O    -0.356000000     4.301000000     2.100000000
H     0.114000000     2.388000000     1.842000000
O     1.058000000     3.403000000     3.632000000
C     2.273000000     2.909000000     3.257000000
C     2.607000000     1.665000000     3.744000000
H     2.003000000     1.163000000     4.496000000
C     3.560000000     0.889000000     3.062000000
O     3.629000000    -0.460000000     3.266000000
C     4.229000000     1.444000000     1.979000000
C     5.259000000     0.701000000     1.202000000
H     5.883000000     1.412000000     0.658000000
C     4.608000000    -0.236000000     0.142000000
C     4.668000000     0.191000000    -1.214000000
H     5.038000000     1.184000000    -1.455000000
H     5.921000000     0.096000000     1.825000000
C     3.988000000     2.827000000     1.630000000
H     4.601000000     3.203000000     0.815000000
C     2.990000000     3.540000000     2.243000000
C     2.502000000     4.882000000     1.722000000
H     3.349000000     5.398000000     1.267000000
H     2.058000000     5.561000000     2.453000000
C     1.419000000     4.681000000     0.591000000
C     1.877000000     4.576000000    -0.740000000
H     2.941000000     4.465000000    -0.930000000
C     0.099000000     4.474000000     0.867000000
C    -0.755000000     4.274000000    -0.120000000
H    -1.813000000     4.167000000     0.105000000
C    -0.380000000     4.268000000    -1.452000000
O    -1.344000000     4.144000000    -2.404000000
C    -1.314000000     2.860000000    -3.096000000
C    -2.716000000     2.247000000    -3.375000000
C    -2.972000000     1.591000000    -4.547000000
H    -2.210000000     1.507000000    -5.317000000
C    -3.732000000     2.260000000    -2.424000000
H    -3.449000000     2.696000000    -1.469000000
O    -0.627000000     2.914000000    -4.349000000
H    -0.823000000     2.171000000    -2.394000000
C     0.983000000     4.401000000    -1.796000000
C     1.521000000     4.313000000    -3.239000000
H     2.399000000     4.961000000    -3.253000000
H     0.750000000     4.823000000    -3.819000000
C     1.639000000     2.923000000    -3.753000000
C     2.847000000     2.266000000    -3.555000000
H     3.642000000     2.850000000    -3.098000000
C     0.577000000     2.265000000    -4.310000000
C     0.619000000     0.919000000    -4.704000000
H    -0.247000000     0.378000000    -5.075000000
C     1.818000000     0.273000000    -4.430000000
O     1.654000000    -1.136000000    -4.416000000
C     1.480000000    -1.824000000    -3.114000000
C     0.481000000    -2.947000000    -3.199000000
C    -0.477000000    -3.042000000    -4.220000000
H    -0.498000000    -2.249000000    -4.963000000
C     0.463000000    -3.939000000    -2.228000000
H     1.044000000    -3.817000000    -1.318000000
O     2.689000000    -2.434000000    -2.758000000
H     1.131000000    -1.102000000    -2.361000000
C     2.980000000     0.901000000    -3.922000000
C     4.185000000     0.086000000    -3.576000000
H     5.074000000     0.699000000    -3.739000000
H     4.349000000    -0.754000000    -4.255000000
C     4.092000000    -0.597000000    -2.171000000
C     3.508000000    -1.772000000    -1.882000000
C     3.595000000    -2.280000000    -0.585000000
H     3.122000000    -3.221000000    -0.312000000
C     4.081000000    -1.505000000     0.419000000
O     3.885000000    -2.039000000     1.698000000
C     2.893000000    -1.371000000     2.458000000
H     2.148000000    -0.816000000     1.869000000
C     2.049000000    -2.334000000     3.339000000
C     1.758000000    -2.109000000     4.655000000
H     2.076000000    -1.146000000     5.046000000
C     1.789000000    -3.586000000     2.795000000
H     2.132000000    -3.892000000     1.810000000
C     1.227000000    -4.495000000     3.601000000
O     0.861000000    -5.769000000     3.218000000
C     0.958000000    -4.293000000     4.932000000
H     0.656000000    -5.106000000     5.587000000
C     1.161000000    -2.990000000     5.428000000
O     0.953000000    -2.711000000     6.767000000
C     0.486000000    -1.508000000     7.222000000
C    -0.503000000    -0.803000000     6.623000000
H    -0.910000000    -1.162000000     5.680000000
C     1.069000000    -1.037000000     8.408000000
H     1.790000000    -1.696000000     8.885000000
C     0.569000000     0.166000000     8.967000000
H     0.945000000     0.464000000     9.942000000
C    -0.412000000     0.885000000     8.247000000
H    -0.864000000     1.746000000     8.733000000
C    -1.048000000     0.364000000     7.182000000
O    -2.137000000     0.950000000     6.695000000
C    -2.185000000     1.410000000     5.399000000
C    -3.431000000     1.289000000     4.807000000
H    -4.307000000     0.888000000     5.309000000
C    -3.606000000     1.802000000     3.522000000
O    -4.787000000     1.576000000     2.895000000
C    -5.190000000     2.341000000     1.823000000
C    -5.394000000     1.660000000     0.624000000
H    -5.295000000     0.578000000     0.611000000
C    -5.328000000     3.738000000     1.884000000
H    -5.110000000     4.238000000     2.824000000
C    -5.538000000     4.439000000     0.729000000
H    -5.596000000     5.522000000     0.792000000
C    -5.783000000     3.731000000    -0.463000000
H    -5.888000000     4.177000000    -1.449000000
C    -5.822000000     2.368000000    -0.460000000
O    -6.024000000     1.666000000    -1.613000000
C    -4.992000000     1.674000000    -2.598000000
C    -5.293000000     1.126000000    -3.844000000
H    -6.240000000     0.598000000    -3.928000000
C    -4.206000000     1.012000000    -4.747000000
O    -4.517000000     0.331000000    -5.882000000
C    -3.873000000    -0.788000000    -6.394000000
C    -3.357000000    -1.760000000    -5.506000000
H    -3.596000000    -1.860000000    -4.450000000
C    -3.636000000    -0.875000000    -7.716000000
H    -3.972000000    -0.014000000    -8.288000000
C    -3.027000000    -1.992000000    -8.242000000
H    -2.772000000    -2.060000000    -9.297000000
C    -2.534000000    -3.003000000    -7.427000000
H    -1.864000000    -3.749000000    -7.848000000
C    -2.672000000    -2.873000000    -6.050000000
O    -2.392000000    -3.974000000    -5.321000000
C    -1.480000000    -3.922000000    -4.208000000
C    -1.502000000    -4.969000000    -3.268000000
H    -2.260000000    -5.746000000    -3.319000000
C    -0.486000000    -4.993000000    -2.293000000
O    -0.538000000    -5.903000000    -1.278000000
C     0.473000000    -6.206000000    -0.389000000
C     1.559000000    -6.953000000    -0.651000000
H     1.788000000    -7.331000000    -1.644000000
C     2.402000000    -7.327000000     0.373000000
H     3.183000000    -8.057000000     0.178000000
C     2.187000000    -6.921000000     1.633000000
H     2.848000000    -7.145000000     2.466000000
C     1.030000000    -6.179000000     1.934000000
C     0.101000000    -5.886000000     0.977000000
H    -0.769000000    -5.321000000     1.304000000
C    -2.093000000    -1.029000000     2.557000000
H    -2.253000000    -1.229000000     3.613000000
C    -0.844000000    -0.546000000     2.141000000
H    -0.113000000    -0.380000000     2.928000000
C    -0.612000000    -0.167000000     0.815000000
C     0.609000000     0.628000000     0.428000000
H     1.254000000     1.039000000     1.208000000
H     1.249000000     0.006000000    -0.201000000
H     0.289000000     1.451000000    -0.214000000
C    -1.659000000    -0.260000000    -0.105000000
H    -1.574000000     0.125000000    -1.118000000
C    -2.894000000    -0.811000000     0.293000000
H    -3.734000000    -0.852000000    -0.395000000
C    -3.136000000    -1.200000000     1.654000000
C    -4.556000000    -1.525000000     2.124000000
O    -5.473000000    -1.885000000     1.325000000
O    -4.791000000    -1.498000000     3.348000000
O    -7.904000000    -1.285000000     2.189000000
H    -8.309000000    -2.152000000     2.214000000
H    -7.004000000    -1.449000000     1.907000000
O    -6.835000000    -0.050000000     4.340000000
H    -5.998000000    -0.335000000     3.973000000
H    -7.491000000    -0.379000000     3.725000000
O    -6.583000000    -1.947000000    -0.920000000
H    -6.229000000    -1.859000000    -0.035000000
H    -5.841000000    -2.244000000    -1.447000000
O    -4.087000000    -2.059000000     5.968000000
H    -4.331000000    -2.205000000     5.053000000
H    -4.898000000    -1.775000000     6.389000000
O    -8.093000000     2.809000000     3.027000000
H    -8.801000000     2.279000000     2.662000000
H    -7.351000000     2.207000000     3.088000000
O    -9.622000000     0.611000000     1.966000000
H    -9.050000000    -0.155000000     2.017000000
H   -10.075000000     0.517000000     1.128000000
O    -5.413000000    -5.701000000    -1.850000000
H    -5.252000000    -6.640000000    -1.766000000
H    -6.358000000    -5.632000000    -1.989000000
O    -6.599000000    -1.230000000     7.293000000
H    -7.045000000    -1.077000000     6.460000000
H    -7.201000000    -1.785000000     7.788000000
O    -7.753000000    -6.207000000     2.363000000
H    -8.146000000    -6.561000000     1.565000000
H    -7.097000000    -5.584000000     2.050000000
O    -7.785000000     2.112000000     6.056000000
H    -7.312000000     1.431000000     5.578000000
H    -7.220000000     2.883000000     5.995000000
O    -4.341000000    -3.332000000    -2.124000000
H    -3.482000000    -3.720000000    -2.295000000
H    -4.920000000    -4.082000000    -1.991000000
O    -2.346000000    -7.291000000     2.887000000
H    -1.895000000    -6.810000000     3.581000000
H    -3.019000000    -6.686000000     2.575000000
O    -4.027000000    -5.394000000     2.253000000
H    -4.714000000    -5.017000000     1.703000000
H    -3.721000000    -4.662000000     2.790000000
O    -6.420000000    -3.698000000     4.430000000
H    -5.844000000    -4.457000000     4.335000000
H    -6.103000000    -3.074000000     3.778000000
O    -6.167000000    -4.351000000     0.941000000
H    -6.400000000    -4.396000000     0.014000000
H    -5.966000000    -3.428000000     1.093000000
O    -8.469000000    -1.132000000    -2.703000000
H    -8.535000000    -0.178000000    -2.666000000
H    -7.725000000    -1.343000000    -2.139000000
O    -8.648000000    -3.113000000     5.978000000
H    -7.940000000    -3.403000000     5.403000000
H    -9.337000000    -2.822000000     5.381000000
O    -2.360000000    -3.852000000     3.760000000
H    -1.773000000    -4.331000000     4.344000000
H    -1.881000000    -3.053000000     3.541000000
O    -3.410000000    -2.708000000     8.314000000
H    -3.543000000    -2.304000000     7.457000000
H    -3.081000000    -1.997000000     8.865000000
