218
-1482.02480
C    -4.431000000    -1.955000000     3.178000000
H    -4.755000000    -2.638000000     2.397000000
C    -4.234000000    -0.560000000     2.980000000
C    -3.859000000     0.212000000     4.057000000
H    -3.680000000     1.266000000     3.858000000
C    -4.287000000    -0.002000000     1.560000000
O    -5.145000000    -0.823000000     0.684000000
H    -3.261000000    -0.040000000     1.166000000
O    -4.694000000     1.393000000     1.503000000
C    -4.066000000     2.242000000     0.597000000
C    -3.060000000     3.072000000     1.117000000
H    -2.909000000     2.992000000     2.191000000
C    -2.303000000     3.921000000     0.232000000
O    -1.298000000     4.677000000     0.756000000
C    -2.568000000     3.865000000    -1.162000000
C    -1.747000000     4.753000000    -2.084000000
H    -2.317000000     5.059000000    -2.964000000
C    -0.442000000     4.109000000    -2.468000000
C    -0.406000000     3.221000000    -3.594000000
H    -1.378000000     3.058000000    -4.053000000
H    -1.478000000     5.708000000    -1.627000000
C    -3.593000000     3.105000000    -1.649000000
H    -3.702000000     3.124000000    -2.730000000
C    -4.320000000     2.274000000    -0.804000000
C    -5.206000000     1.272000000    -1.425000000
H    -5.537000000     1.610000000    -2.410000000
H    -6.139000000     1.166000000    -0.867000000
C    -4.537000000    -0.049000000    -1.559000000
C    -4.024000000    -0.363000000    -2.811000000
H    -4.136000000     0.406000000    -3.572000000
C    -4.586000000    -1.035000000    -0.550000000
C    -4.031000000    -2.262000000    -0.712000000
H    -4.217000000    -2.972000000     0.090000000
C    -3.531000000    -2.604000000    -1.989000000
O    -2.770000000    -3.715000000    -2.130000000
C    -1.370000000    -3.469000000    -2.040000000
C    -0.650000000    -4.498000000    -1.103000000
C     0.568000000    -5.045000000    -1.465000000
H     0.990000000    -4.930000000    -2.461000000
C    -1.032000000    -4.629000000     0.223000000
H    -1.914000000    -4.122000000     0.606000000
O    -0.702000000    -3.470000000    -3.292000000
H    -1.195000000    -2.448000000    -1.670000000
C    -3.481000000    -1.626000000    -3.035000000
C    -2.852000000    -1.842000000    -4.380000000
H    -3.433000000    -1.318000000    -5.142000000
H    -3.000000000    -2.874000000    -4.705000000
C    -1.390000000    -1.351000000    -4.400000000
C    -0.994000000    -0.106000000    -4.934000000
H    -1.712000000     0.557000000    -5.411000000
C    -0.395000000    -2.219000000    -3.879000000
C     0.934000000    -1.779000000    -3.753000000
H     1.715000000    -2.390000000    -3.307000000
C     1.244000000    -0.498000000    -4.249000000
O     2.574000000    -0.044000000    -4.104000000
C     2.857000000     0.824000000    -2.964000000
C     3.988000000     0.317000000    -2.133000000
C     4.403000000    -1.066000000    -2.081000000
H     3.824000000    -1.827000000    -2.599000000
C     4.859000000     1.262000000    -1.569000000
H     4.594000000     2.313000000    -1.490000000
O     3.082000000     2.185000000    -3.387000000
H     1.983000000     0.850000000    -2.297000000
C     0.328000000     0.352000000    -4.798000000
C     0.812000000     1.750000000    -5.247000000
H     0.086000000     2.111000000    -5.979000000
H     1.803000000     1.620000000    -5.686000000
C     0.785000000     2.649000000    -4.061000000
C     1.950000000     3.012000000    -3.382000000
C     1.930000000     3.843000000    -2.258000000
H     2.791000000     4.055000000    -1.628000000
C     0.720000000     4.396000000    -1.823000000
O     0.625000000     4.973000000    -0.577000000
C     0.047000000     4.157000000     0.512000000
H     0.008000000     3.100000000     0.210000000
C     0.986000000     4.141000000     1.715000000
C     0.448000000     3.702000000     2.924000000
H    -0.605000000     3.454000000     3.033000000
C     2.372000000     4.343000000     1.644000000
H     2.893000000     4.569000000     0.717000000
C     3.171000000     4.290000000     2.776000000
O     4.464000000     4.743000000     2.720000000
C     2.647000000     3.886000000     3.974000000
H     3.284000000     3.730000000     4.840000000
C     1.287000000     3.514000000     4.036000000
O     0.734000000     2.957000000     5.200000000
C    -0.586000000     2.977000000     5.460000000
C    -1.196000000     1.735000000     5.649000000
H    -0.665000000     0.817000000     5.410000000
C    -1.328000000     4.092000000     5.630000000
H    -0.853000000     5.063000000     5.519000000
C    -2.639000000     4.117000000     6.097000000
H    -3.202000000     5.023000000     6.304000000
C    -3.244000000     2.908000000     6.327000000
H    -4.264000000     2.882000000     6.703000000
C    -2.528000000     1.697000000     6.076000000
O    -3.135000000     0.436000000     6.348000000
C    -3.479000000    -0.324000000     5.300000000
C    -3.767000000    -1.715000000     5.508000000
H    -3.436000000    -2.173000000     6.437000000
C    -4.176000000    -2.497000000     4.447000000
O    -4.454000000    -3.859000000     4.634000000
C    -3.837000000    -4.836000000     3.909000000
C    -2.447000000    -4.860000000     3.743000000
H    -1.804000000    -4.178000000     4.294000000
C    -4.663000000    -5.729000000     3.215000000
H    -5.742000000    -5.692000000     3.344000000
C    -4.133000000    -6.555000000     2.275000000
H    -4.732000000    -7.176000000     1.613000000
C    -2.729000000    -6.645000000     2.088000000
H    -2.330000000    -7.348000000     1.361000000
C    -1.874000000    -5.756000000     2.814000000
O    -0.571000000    -5.585000000     2.406000000
C    -0.188000000    -5.382000000     1.101000000
C     0.961000000    -6.001000000     0.708000000
H     1.535000000    -6.578000000     1.428000000
C     1.340000000    -5.861000000    -0.652000000
O     2.620000000    -6.278000000    -1.018000000
C     3.663000000    -5.540000000    -1.709000000
C     4.190000000    -4.340000000    -1.126000000
H     3.908000000    -3.962000000    -0.147000000
C     4.040000000    -6.040000000    -2.977000000
H     3.407000000    -6.837000000    -3.360000000
C     4.938000000    -5.292000000    -3.711000000
H     5.100000000    -5.594000000    -4.742000000
C     5.536000000    -4.147000000    -3.175000000
H     6.280000000    -3.657000000    -3.798000000
C     5.247000000    -3.778000000    -1.844000000
O     5.987000000    -2.709000000    -1.360000000
C     5.594000000    -1.408000000    -1.454000000
C     6.338000000    -0.441000000    -0.868000000
H     7.251000000    -0.773000000    -0.382000000
C     6.006000000     0.902000000    -0.893000000
O     6.875000000     1.779000000    -0.266000000
C     6.472000000     3.073000000     0.127000000
C     6.929000000     4.156000000    -0.637000000
H     7.680000000     3.986000000    -1.404000000
C     6.698000000     5.438000000    -0.148000000
H     7.257000000     6.291000000    -0.522000000
C     5.794000000     5.649000000     0.928000000
H     5.697000000     6.662000000     1.310000000
C     5.283000000     4.590000000     1.651000000
C     5.620000000     3.273000000     1.259000000
H     5.290000000     2.349000000     1.727000000
C     1.133000000    -2.063000000     1.240000000
H     1.058000000    -3.104000000     1.547000000
C     0.107000000    -1.299000000     0.578000000
H    -0.847000000    -1.818000000     0.553000000
C     0.275000000     0.025000000     0.226000000
C    -0.822000000     0.672000000    -0.534000000
H    -1.320000000     0.051000000    -1.281000000
H    -1.601000000     1.059000000     0.125000000
H    -0.446000000     1.521000000    -1.108000000
C     1.500000000     0.643000000     0.457000000
H     1.697000000     1.669000000     0.156000000
C     2.601000000    -0.118000000     0.926000000
H     3.552000000     0.356000000     1.153000000
C     2.384000000    -1.448000000     1.332000000
C     3.506000000    -2.216000000     1.975000000
O     4.601000000    -1.793000000     1.931000000
O     3.282000000    -3.320000000     2.436000000
O     7.423000000    -5.917000000     2.218000000
H     7.236000000    -6.047000000     1.289000000
H     7.390000000    -4.967000000     2.338000000
O     6.094000000    -3.820000000     4.555000000
H     6.150000000    -3.861000000     3.601000000
H     6.863000000    -3.314000000     4.818000000
O     0.847000000    -0.095000000     3.781000000
H     0.962000000     0.856000000     3.789000000
H     0.780000000    -0.320000000     2.853000000
O     7.667000000    -5.475000000    -0.532000000
H     8.266000000    -4.826000000    -0.902000000
H     6.824000000    -5.286000000    -0.944000000
O     0.481000000    -2.647000000     5.167000000
H     0.348000000    -1.901000000     4.582000000
H     1.397000000    -2.582000000     5.434000000
O     1.808000000    -3.999000000     7.907000000
H     1.762000000    -3.044000000     7.872000000
H     2.468000000    -4.231000000     7.253000000
O     3.596000000    -2.443000000     4.981000000
H     3.862000000    -2.487000000     4.063000000
H     4.294000000    -2.896000000     5.455000000
O     4.674000000     0.441000000     5.505000000
H     4.053000000     0.180000000     6.185000000
H     4.637000000    -0.268000000     4.863000000
O     4.183000000    -5.989000000     5.150000000
H     3.360000000    -5.638000000     4.810000000
H     4.823000000    -5.295000000     4.992000000
O     8.323000000     1.745000000     3.745000000
H     7.590000000     1.143000000     3.615000000
H     7.957000000     2.456000000     4.272000000
O     6.767000000    -3.132000000     1.803000000
H     5.896000000    -2.751000000     1.694000000
H     7.137000000    -3.141000000     0.920000000
O     6.720000000    -0.633000000     3.372000000
H     7.459000000    -1.241000000     3.374000000
H     6.069000000    -1.048000000     2.806000000
O     2.452000000    -0.665000000     6.857000000
H     1.967000000    -0.464000000     6.056000000
H     2.137000000    -0.024000000     7.495000000
O     1.928000000    -5.053000000     4.157000000
H     2.155000000    -4.403000000     3.492000000
H     0.996000000    -4.911000000     4.322000000
O     7.058000000    -8.035000000     4.150000000
H     6.912000000    -7.229000000     3.656000000
H     7.810000000    -8.445000000     3.723000000
O     4.308000000    -8.220000000     0.534000000
H     3.999000000    -7.754000000    -0.243000000
H     4.611000000    -7.529000000     1.123000000
O     6.770000000    -1.049000000     7.001000000
H     6.548000000    -0.626000000     6.171000000
H     7.239000000    -0.376000000     7.494000000
O     5.900000000    -3.637000000     7.677000000
H     6.084000000    -2.759000000     7.343000000
H     6.384000000    -4.221000000     7.094000000
O     4.225000000    -5.740000000     1.795000000
H     4.259000000    -6.090000000     2.685000000
H     4.039000000    -4.808000000     1.911000000
