218
-1456.51316
C    -1.791000000     3.220000000     2.531000000
H    -1.998000000     3.141000000     1.466000000
C    -0.492000000     3.632000000     2.894000000
C    -0.178000000     3.676000000     4.314000000
H     0.732000000     4.163000000     4.656000000
C     0.476000000     3.899000000     1.787000000
O    -0.030000000     4.850000000     0.861000000
H     0.484000000     2.958000000     1.218000000
O     1.758000000     4.284000000     2.322000000
C     2.852000000     3.607000000     1.826000000
C     3.256000000     2.493000000     2.512000000
H     2.897000000     2.230000000     3.504000000
C     4.096000000     1.616000000     1.816000000
O     4.324000000     0.396000000     2.451000000
C     4.588000000     1.861000000     0.516000000
C     5.563000000     0.886000000    -0.123000000
H     6.335000000     1.438000000    -0.664000000
C     4.918000000    -0.222000000    -0.963000000
C     4.629000000    -0.014000000    -2.315000000
H     4.849000000     0.988000000    -2.673000000
H     6.235000000     0.486000000     0.639000000
C     4.333000000     3.107000000    -0.034000000
H     4.695000000     3.401000000    -1.016000000
C     3.353000000     3.939000000     0.523000000
C     2.628000000     5.041000000    -0.300000000
H     3.336000000     5.445000000    -1.027000000
H     2.414000000     5.913000000     0.322000000
C     1.374000000     4.713000000    -1.096000000
C     1.440000000     4.344000000    -2.429000000
H     2.418000000     4.203000000    -2.882000000
C     0.122000000     4.701000000    -0.477000000
C    -1.006000000     4.404000000    -1.232000000
H    -1.937000000     4.394000000    -0.670000000
C    -0.967000000     3.955000000    -2.530000000
O    -2.083000000     3.425000000    -3.105000000
C    -2.364000000     2.018000000    -3.250000000
C    -3.843000000     1.689000000    -2.955000000
C    -4.364000000     0.520000000    -3.499000000
H    -3.790000000    -0.057000000    -4.219000000
C    -4.681000000     2.496000000    -2.108000000
H    -4.300000000     3.382000000    -1.607000000
O    -1.868000000     1.571000000    -4.495000000
H    -1.842000000     1.419000000    -2.489000000
C     0.311000000     4.006000000    -3.160000000
C     0.525000000     3.463000000    -4.573000000
H     1.496000000     3.815000000    -4.929000000
H    -0.259000000     3.866000000    -5.217000000
C     0.579000000     1.940000000    -4.617000000
C     1.823000000     1.295000000    -4.518000000
H     2.740000000     1.876000000    -4.478000000
C    -0.597000000     1.120000000    -4.517000000
C    -0.517000000    -0.241000000    -4.547000000
H    -1.404000000    -0.860000000    -4.654000000
C     0.808000000    -0.843000000    -4.553000000
O     0.927000000    -2.224000000    -4.423000000
C     1.122000000    -2.718000000    -3.047000000
C     0.354000000    -4.005000000    -2.717000000
C    -1.073000000    -4.023000000    -3.103000000
H    -1.481000000    -3.301000000    -3.805000000
C     0.881000000    -4.955000000    -1.826000000
H     1.947000000    -4.919000000    -1.620000000
O     2.597000000    -3.025000000    -2.916000000
H     0.954000000    -1.971000000    -2.257000000
C     1.952000000    -0.077000000    -4.500000000
C     3.412000000    -0.607000000    -4.407000000
H     4.083000000     0.083000000    -4.922000000
H     3.526000000    -1.568000000    -4.914000000
C     3.868000000    -0.909000000    -3.003000000
C     3.494000000    -2.106000000    -2.405000000
C     3.648000000    -2.287000000    -1.019000000
H     3.309000000    -3.189000000    -0.516000000
C     4.287000000    -1.287000000    -0.281000000
O     4.428000000    -1.460000000     1.094000000
C     3.545000000    -0.730000000     1.995000000
H     2.631000000    -0.363000000     1.507000000
C     3.060000000    -1.601000000     3.131000000
C     2.327000000    -1.083000000     4.159000000
H     2.231000000    -0.003000000     4.245000000
C     3.122000000    -2.991000000     2.967000000
H     3.756000000    -3.444000000     2.209000000
C     2.383000000    -3.888000000     3.706000000
O     2.422000000    -5.254000000     3.497000000
C     1.529000000    -3.320000000     4.714000000
H     0.899000000    -3.973000000     5.312000000
C     1.540000000    -1.951000000     4.919000000
O     0.707000000    -1.589000000     5.991000000
C     0.785000000    -0.399000000     6.677000000
C    -0.033000000     0.662000000     6.274000000
H    -0.687000000     0.520000000     5.418000000
C     1.466000000    -0.338000000     7.881000000
H     1.970000000    -1.205000000     8.301000000
C     1.337000000     0.835000000     8.640000000
H     1.779000000     0.968000000     9.624000000
C     0.816000000     1.976000000     8.063000000
H     0.870000000     2.951000000     8.541000000
C     0.042000000     1.890000000     6.952000000
O    -0.676000000     2.957000000     6.555000000
C    -1.100000000     3.201000000     5.229000000
C    -2.228000000     2.583000000     4.754000000
H    -2.938000000     2.139000000     5.447000000
C    -2.595000000     2.615000000     3.426000000
O    -3.733000000     1.987000000     2.956000000
C    -4.683000000     2.748000000     2.260000000
C    -5.307000000     2.297000000     1.106000000
H    -5.033000000     1.364000000     0.619000000
C    -5.007000000     3.995000000     2.738000000
H    -4.608000000     4.349000000     3.685000000
C    -5.992000000     4.803000000     2.098000000
H    -6.223000000     5.746000000     2.589000000
C    -6.609000000     4.310000000     0.970000000
H    -7.405000000     4.934000000     0.574000000
C    -6.256000000     3.088000000     0.437000000
O    -6.771000000     2.825000000    -0.801000000
C    -5.998000000     2.093000000    -1.764000000
C    -6.447000000     0.965000000    -2.347000000
H    -7.464000000     0.645000000    -2.135000000
C    -5.633000000     0.124000000    -3.178000000
O    -6.077000000    -1.080000000    -3.497000000
C    -5.285000000    -2.129000000    -3.837000000
C    -4.588000000    -2.915000000    -2.920000000
H    -4.604000000    -2.716000000    -1.851000000
C    -5.194000000    -2.389000000    -5.220000000
H    -5.826000000    -1.756000000    -5.838000000
C    -4.434000000    -3.426000000    -5.680000000
H    -4.556000000    -3.773000000    -6.703000000
C    -3.767000000    -4.185000000    -4.715000000
H    -3.238000000    -5.086000000    -5.015000000
C    -3.885000000    -4.025000000    -3.373000000
O    -3.173000000    -4.866000000    -2.492000000
C    -1.855000000    -4.942000000    -2.484000000
C    -1.256000000    -5.906000000    -1.671000000
H    -1.945000000    -6.585000000    -1.175000000
C     0.054000000    -6.009000000    -1.356000000
O     0.484000000    -6.984000000    -0.449000000
C     1.554000000    -6.790000000     0.401000000
C     2.773000000    -7.307000000    -0.039000000
H     2.847000000    -7.817000000    -0.996000000
C     3.918000000    -7.058000000     0.692000000
H     4.851000000    -7.527000000     0.390000000
C     3.810000000    -6.495000000     1.918000000
H     4.728000000    -6.336000000     2.477000000
C     2.583000000    -5.908000000     2.310000000
C     1.466000000    -6.142000000     1.617000000
H     0.532000000    -5.716000000     1.973000000
C    -1.285000000    -0.108000000     2.195000000
H    -1.414000000     0.007000000     3.268000000
C    -0.148000000     0.325000000     1.548000000
H     0.542000000     0.821000000     2.226000000
C    -0.028000000     0.266000000     0.167000000
C     1.192000000     0.766000000    -0.615000000
H     1.767000000    -0.086000000    -0.986000000
H     0.914000000     1.393000000    -1.464000000
H     1.890000000     1.419000000    -0.086000000
C    -1.066000000    -0.369000000    -0.514000000
H    -0.916000000    -0.371000000    -1.591000000
C    -2.251000000    -0.726000000     0.045000000
H    -3.122000000    -1.133000000    -0.462000000
C    -2.369000000    -0.660000000     1.440000000
C    -3.618000000    -1.159000000     2.141000000
O    -4.407000000    -1.811000000     1.478000000
O    -3.687000000    -1.098000000     3.331000000
O    -7.601000000    -3.034000000    -1.732000000
H    -8.503000000    -2.999000000    -2.048000000
H    -7.071000000    -2.793000000    -2.492000000
O    -9.727000000    -1.082000000     0.049000000
H    -9.620000000    -0.871000000    -0.878000000
H    -8.954000000    -1.602000000     0.267000000
O    -5.875000000    -3.521000000     3.127000000
H    -5.781000000    -4.438000000     2.867000000
H    -5.288000000    -3.044000000     2.541000000
O    -7.013000000    -1.272000000     0.795000000
H    -6.103000000    -1.443000000     1.040000000
H    -7.283000000    -2.055000000     0.316000000
O    -6.159000000    -0.227000000     4.180000000
H    -6.548000000    -1.100000000     4.128000000
H    -5.323000000    -0.309000000     3.720000000
O    -8.083000000     0.870000000     2.556000000
H    -7.308000000     0.658000000     3.076000000
H    -8.042000000     0.271000000     1.811000000
O    -4.618000000    -2.731000000     5.332000000
H    -5.247000000    -3.168000000     4.759000000
H    -4.081000000    -2.203000000     4.741000000
O    -5.580000000    -4.315000000    -0.108000000
H    -6.188000000    -3.909000000    -0.725000000
H    -5.944000000    -5.186000000     0.050000000
O    -1.687000000    -5.857000000     4.785000000
H    -1.239000000    -5.016000000     4.875000000
H    -2.617000000    -5.643000000     4.865000000
O    -1.686000000    -2.442000000     4.553000000
H    -0.904000000    -2.747000000     4.092000000
H    -2.307000000    -2.228000000     3.856000000
O    -2.345000000    -6.457000000     2.003000000
H    -2.425000000    -5.605000000     1.574000000
H    -2.202000000    -6.248000000     2.926000000
O    -5.891000000     1.504000000     6.237000000
H    -5.383000000     0.837000000     6.698000000
H    -6.122000000     1.095000000     5.403000000
O    -3.092000000    -0.112000000     6.073000000
H    -3.128000000    -0.576000000     5.237000000
H    -2.949000000    -0.799000000     6.723000000
O    -2.976000000    -4.265000000     0.897000000
H    -3.272000000    -4.765000000     0.136000000
H    -3.656000000    -3.606000000     1.031000000
O    -2.281000000    -3.009000000     7.111000000
H    -1.963000000    -2.760000000     6.244000000
H    -3.071000000    -3.522000000     6.938000000
O    -8.168000000    -2.422000000     4.312000000
H    -8.430000000    -2.930000000     5.080000000
H    -7.390000000    -2.871000000     3.982000000
O    -5.043000000    -1.381000000     7.847000000
H    -5.804000000    -1.793000000     8.255000000
H    -4.788000000    -1.985000000     7.149000000
O    -0.455000000    -2.983000000     1.963000000
H    -0.242000000    -2.054000000     1.869000000
H    -1.294000000    -3.082000000     1.514000000
O    -4.391000000    -6.112000000     5.487000000
H    -4.593000000    -5.717000000     6.335000000
H    -5.228000000    -6.126000000     5.023000000
