218
-1487.35257
C     0.182000000     4.621000000     3.169000000
H     0.019000000     5.368000000     2.397000000
C     1.146000000     3.590000000     3.007000000
C     1.264000000     2.638000000     4.041000000
H     1.995000000     1.837000000     3.963000000
C     1.840000000     3.406000000     1.693000000
O     1.798000000     4.648000000     0.895000000
H     1.261000000     2.599000000     1.219000000
O     3.173000000     3.090000000     2.012000000
C     3.774000000     2.133000000     1.226000000
C     3.832000000     0.879000000     1.759000000
H     3.386000000     0.713000000     2.737000000
C     4.352000000    -0.174000000     1.046000000
O     4.285000000    -1.361000000     1.644000000
C     4.810000000    -0.008000000    -0.255000000
C     5.237000000    -1.132000000    -1.176000000
H     5.884000000    -0.745000000    -1.966000000
C     4.086000000    -1.840000000    -1.811000000
C     3.588000000    -1.486000000    -3.079000000
H     4.044000000    -0.655000000    -3.611000000
H     5.917000000    -1.861000000    -0.730000000
C     4.746000000     1.273000000    -0.819000000
H     5.126000000     1.373000000    -1.832000000
C     4.246000000     2.355000000    -0.088000000
C     4.087000000     3.780000000    -0.862000000
H     4.663000000     3.827000000    -1.788000000
H     4.423000000     4.659000000    -0.309000000
C     2.591000000     3.929000000    -1.312000000
C     2.266000000     3.503000000    -2.633000000
H     2.978000000     3.006000000    -3.287000000
C     1.569000000     4.426000000    -0.462000000
C     0.234000000     4.390000000    -0.914000000
H    -0.591000000     4.563000000    -0.228000000
C    -0.062000000     4.024000000    -2.205000000
O    -1.337000000     3.976000000    -2.573000000
C    -1.896000000     2.625000000    -2.505000000
C    -3.132000000     2.593000000    -1.690000000
C    -4.109000000     1.635000000    -2.005000000
H    -3.998000000     0.895000000    -2.794000000
C    -3.373000000     3.481000000    -0.705000000
H    -2.659000000     4.261000000    -0.457000000
O    -2.007000000     2.072000000    -3.812000000
H    -1.150000000     2.006000000    -1.986000000
C     0.935000000     3.630000000    -3.036000000
C     0.656000000     3.141000000    -4.504000000
H     1.561000000     3.215000000    -5.111000000
H    -0.136000000     3.771000000    -4.916000000
C     0.274000000     1.644000000    -4.493000000
C     1.188000000     0.666000000    -4.860000000
H     2.194000000     1.065000000    -4.961000000
C    -1.009000000     1.228000000    -4.225000000
C    -1.308000000    -0.098000000    -4.288000000
H    -2.276000000    -0.385000000    -3.885000000
C    -0.393000000    -1.088000000    -4.636000000
O    -0.793000000    -2.415000000    -4.524000000
C    -0.512000000    -2.974000000    -3.226000000
C    -1.649000000    -3.855000000    -2.784000000
C    -2.926000000    -3.496000000    -3.179000000
H    -3.099000000    -2.693000000    -3.891000000
C    -1.442000000    -4.801000000    -1.769000000
H    -0.432000000    -5.025000000    -1.435000000
O     0.720000000    -3.750000000    -3.384000000
H    -0.347000000    -2.172000000    -2.492000000
C     0.910000000    -0.694000000    -4.834000000
C     2.019000000    -1.724000000    -5.041000000
H     2.842000000    -1.274000000    -5.600000000
H     1.711000000    -2.591000000    -5.630000000
C     2.612000000    -2.196000000    -3.721000000
C     1.903000000    -3.196000000    -2.956000000
C     2.327000000    -3.467000000    -1.673000000
H     1.748000000    -4.141000000    -1.047000000
C     3.410000000    -2.790000000    -1.075000000
O     3.697000000    -3.064000000     0.229000000
C     3.214000000    -2.232000000     1.280000000
H     2.338000000    -1.726000000     0.847000000
C     2.825000000    -2.953000000     2.601000000
C     3.044000000    -2.412000000     3.858000000
H     3.689000000    -1.542000000     3.952000000
C     2.063000000    -4.095000000     2.528000000
H     1.913000000    -4.475000000     1.521000000
C     1.490000000    -4.661000000     3.677000000
O     0.720000000    -5.775000000     3.571000000
C     1.703000000    -4.111000000     4.928000000
H     1.134000000    -4.518000000     5.760000000
C     2.436000000    -2.951000000     4.975000000
O     2.675000000    -2.463000000     6.269000000
C     2.713000000    -1.131000000     6.389000000
C     1.575000000    -0.372000000     6.315000000
H     0.598000000    -0.847000000     6.330000000
C     3.958000000    -0.534000000     6.576000000
H     4.885000000    -1.098000000     6.525000000
C     4.113000000     0.856000000     6.631000000
H     5.112000000     1.282000000     6.688000000
C     2.950000000     1.635000000     6.584000000
H     3.011000000     2.705000000     6.766000000
C     1.692000000     1.011000000     6.419000000
O     0.544000000     1.706000000     6.238000000
C     0.423000000     2.637000000     5.149000000
C    -0.501000000     3.668000000     5.323000000
H    -1.173000000     3.714000000     6.176000000
C    -0.639000000     4.640000000     4.284000000
O    -1.641000000     5.531000000     4.311000000
C    -2.347000000     5.816000000     3.176000000
C    -3.340000000     4.952000000     2.771000000
H    -3.470000000     4.021000000     3.316000000
C    -2.203000000     7.057000000     2.559000000
H    -1.399000000     7.743000000     2.814000000
C    -2.898000000     7.347000000     1.413000000
H    -2.655000000     8.208000000     0.795000000
C    -3.798000000     6.359000000     0.857000000
H    -4.367000000     6.534000000    -0.053000000
C    -3.943000000     5.168000000     1.548000000
O    -4.911000000     4.275000000     1.078000000
C    -4.599000000     3.432000000    -0.018000000
C    -5.565000000     2.479000000    -0.275000000
H    -6.440000000     2.527000000     0.369000000
C    -5.291000000     1.480000000    -1.239000000
O    -6.293000000     0.591000000    -1.597000000
C    -6.332000000    -0.463000000    -2.530000000
C    -5.799000000    -1.725000000    -2.303000000
H    -5.584000000    -2.073000000    -1.296000000
C    -6.699000000    -0.117000000    -3.818000000
H    -7.079000000     0.884000000    -4.006000000
C    -6.467000000    -0.972000000    -4.857000000
H    -6.791000000    -0.791000000    -5.879000000
C    -6.055000000    -2.299000000    -4.659000000
H    -5.827000000    -2.982000000    -5.473000000
C    -5.777000000    -2.664000000    -3.347000000
O    -5.262000000    -3.947000000    -3.182000000
C    -3.998000000    -4.098000000    -2.576000000
C    -3.836000000    -5.044000000    -1.565000000
H    -4.680000000    -5.522000000    -1.075000000
C    -2.558000000    -5.278000000    -1.100000000
O    -2.518000000    -6.111000000     0.061000000
C    -1.355000000    -6.518000000     0.651000000
C    -0.672000000    -7.593000000     0.121000000
H    -1.101000000    -8.087000000    -0.746000000
C     0.415000000    -8.103000000     0.795000000
H     1.026000000    -8.911000000     0.401000000
C     0.951000000    -7.413000000     1.882000000
H     1.903000000    -7.773000000     2.265000000
C     0.275000000    -6.308000000     2.382000000
C    -0.882000000    -5.882000000     1.793000000
H    -1.456000000    -5.027000000     2.140000000
C    -2.099000000     0.213000000     1.224000000
H    -2.851000000     0.814000000     1.729000000
C    -0.957000000     0.684000000     0.637000000
H    -0.672000000     1.733000000     0.650000000
C    -0.160000000    -0.147000000    -0.047000000
C     1.033000000     0.289000000    -0.765000000
H     1.746000000    -0.537000000    -0.710000000
H     0.888000000     0.493000000    -1.828000000
H     1.661000000     1.081000000    -0.352000000
C    -0.388000000    -1.538000000    -0.038000000
H     0.294000000    -2.186000000    -0.582000000
C    -1.525000000    -2.060000000     0.526000000
H    -1.644000000    -3.139000000     0.588000000
C    -2.445000000    -1.155000000     1.178000000
C    -3.736000000    -1.666000000     1.729000000
O    -4.083000000    -2.829000000     1.522000000
O    -4.373000000    -1.087000000     2.627000000
O    -5.681000000    -0.235000000     4.977000000
H    -5.782000000    -1.075000000     5.425000000
H    -5.237000000    -0.452000000     4.157000000
O    -8.906000000     2.196000000    -0.615000000
H    -8.192000000     1.648000000    -0.290000000
H    -9.635000000     1.589000000    -0.741000000
O    -6.605000000    -3.736000000     0.444000000
H    -5.864000000    -3.154000000     0.616000000
H    -6.221000000    -4.613000000     0.424000000
O    -6.421000000     1.656000000     2.949000000
H    -6.448000000     1.088000000     3.719000000
H    -6.048000000     1.107000000     2.259000000
O    -4.242000000    -7.563000000     4.350000000
H    -4.431000000    -6.634000000     4.480000000
H    -5.014000000    -7.904000000     3.899000000
O    -4.403000000    -3.033000000     8.302000000
H    -3.472000000    -3.194000000     8.456000000
H    -4.454000000    -2.793000000     7.377000000
O    -6.558000000    -6.022000000     3.895000000
H    -7.239000000    -6.511000000     3.434000000
H    -5.878000000    -5.878000000     3.236000000
O    -6.648000000    -2.962000000     3.084000000
H    -5.805000000    -2.545000000     2.908000000
H    -6.670000000    -3.717000000     2.496000000
O    -5.932000000    -2.861000000     5.731000000
H    -6.152000000    -3.473000000     6.433000000
H    -6.502000000    -3.115000000     5.005000000
O    -0.229000000    -2.034000000     3.305000000
H    -0.176000000    -1.131000000     2.991000000
H    -1.069000000    -2.353000000     2.976000000
O    -2.426000000    -0.439000000     6.857000000
H    -2.728000000    -0.047000000     6.037000000
H    -2.137000000    -1.318000000     6.610000000
O    -1.838000000    -3.836000000     7.959000000
H    -1.496000000    -3.390000000     7.184000000
H    -1.070000000    -3.973000000     8.514000000
O    -9.483000000    -3.730000000     1.275000000
H    -8.532000000    -3.744000000     1.174000000
H    -9.816000000    -3.604000000     0.386000000
O    -2.867000000     0.608000000     4.332000000
H    -3.512000000     1.290000000     4.143000000
H    -3.179000000    -0.157000000     3.848000000
O    -3.375000000    -3.820000000     4.001000000
H    -4.168000000    -3.894000000     4.533000000
H    -3.547000000    -3.084000000     3.415000000
O    -8.403000000    -0.938000000     2.644000000
H    -8.477000000    -1.006000000     3.596000000
H    -7.747000000    -1.593000000     2.407000000
O    -1.053000000    -2.608000000     5.741000000
H    -1.926000000    -2.820000000     5.411000000
H    -0.547000000    -2.393000000     4.958000000
O    -7.188000000     0.305000000     7.281000000
H    -7.829000000     1.009000000     7.184000000
H    -6.570000000     0.443000000     6.564000000
O    -4.466000000    -5.510000000     2.006000000
H    -4.215000000    -4.590000000     1.929000000
H    -3.828000000    -5.979000000     1.468000000
