218
-1442.39999
C    -0.104000000     3.786000000     3.722000000
H    -0.202000000     4.637000000     3.053000000
C     0.926000000     2.815000000     3.604000000
C     0.993000000     1.855000000     4.527000000
H     1.733000000     1.076000000     4.362000000
C     1.792000000     2.877000000     2.353000000
O     1.715000000     4.166000000     1.644000000
H     1.379000000     2.080000000     1.718000000
O     3.177000000     2.505000000     2.624000000
C     3.882000000     1.676000000     1.728000000
C     3.923000000     0.337000000     2.081000000
H     3.470000000     0.001000000     3.010000000
C     4.569000000    -0.562000000     1.253000000
O     4.604000000    -1.940000000     1.594000000
C     5.072000000    -0.192000000    -0.029000000
C     5.494000000    -1.227000000    -1.124000000
H     6.110000000    -0.770000000    -1.901000000
C     4.236000000    -1.731000000    -1.800000000
C     3.827000000    -1.158000000    -2.991000000
H     4.265000000    -0.218000000    -3.317000000
H     6.036000000    -2.050000000    -0.653000000
C     4.869000000     1.120000000    -0.416000000
H     5.290000000     1.446000000    -1.364000000
C     4.307000000     2.041000000     0.451000000
C     4.139000000     3.506000000     0.035000000
H     5.002000000     3.754000000    -0.587000000
H     4.379000000     4.103000000     0.918000000
C     2.809000000     3.913000000    -0.600000000
C     2.586000000     3.833000000    -1.951000000
H     3.374000000     3.527000000    -2.635000000
C     1.735000000     4.264000000     0.231000000
C     0.448000000     4.533000000    -0.357000000
H    -0.418000000     4.626000000     0.293000000
C     0.233000000     4.409000000    -1.670000000
O    -1.035000000     4.522000000    -2.073000000
C    -1.687000000     3.246000000    -2.133000000
C    -3.124000000     3.225000000    -1.495000000
C    -4.081000000     2.289000000    -1.871000000
H    -3.764000000     1.498000000    -2.546000000
C    -3.519000000     4.195000000    -0.523000000
H    -2.783000000     4.927000000    -0.201000000
O    -1.786000000     2.884000000    -3.558000000
H    -1.044000000     2.507000000    -1.633000000
C     1.298000000     4.036000000    -2.500000000
C     1.086000000     3.788000000    -3.974000000
H     1.950000000     4.106000000    -4.562000000
H     0.304000000     4.460000000    -4.334000000
C     0.548000000     2.391000000    -4.159000000
C     1.501000000     1.536000000    -4.674000000
H     2.541000000     1.843000000    -4.745000000
C    -0.810000000     2.031000000    -4.038000000
C    -1.153000000     0.725000000    -4.287000000
H    -2.195000000     0.443000000    -4.155000000
C    -0.189000000    -0.187000000    -4.538000000
O    -0.626000000    -1.509000000    -4.610000000
C    -0.417000000    -2.407000000    -3.454000000
C    -1.655000000    -3.313000000    -3.124000000
C    -2.889000000    -2.841000000    -3.452000000
H    -2.936000000    -1.871000000    -3.941000000
C    -1.400000000    -4.540000000    -2.510000000
H    -0.427000000    -4.791000000    -2.095000000
O     0.758000000    -3.174000000    -3.659000000
H    -0.383000000    -1.748000000    -2.574000000
C     1.187000000     0.155000000    -4.733000000
C     2.307000000    -1.008000000    -4.932000000
H     3.181000000    -0.620000000    -5.458000000
H     1.932000000    -1.782000000    -5.604000000
C     2.673000000    -1.659000000    -3.658000000
C     2.015000000    -2.751000000    -3.132000000
C     2.472000000    -3.410000000    -1.980000000
H     1.922000000    -4.205000000    -1.483000000
C     3.584000000    -2.862000000    -1.337000000
O     3.835000000    -3.443000000    -0.087000000
C     3.447000000    -2.628000000     1.073000000
H     2.765000000    -1.838000000     0.724000000
C     2.719000000    -3.500000000     2.054000000
C     2.701000000    -3.203000000     3.381000000
H     3.207000000    -2.311000000     3.742000000
C     1.874000000    -4.473000000     1.641000000
H     1.745000000    -4.729000000     0.592000000
C     1.159000000    -5.290000000     2.535000000
O     0.436000000    -6.393000000     2.225000000
C     1.238000000    -4.938000000     3.868000000
H     0.658000000    -5.563000000     4.542000000
C     1.891000000    -3.813000000     4.284000000
O     1.930000000    -3.547000000     5.566000000
C     2.102000000    -2.303000000     6.055000000
C     1.093000000    -1.376000000     5.851000000
H     0.181000000    -1.547000000     5.285000000
C     3.273000000    -2.035000000     6.798000000
H     4.076000000    -2.730000000     7.030000000
C     3.425000000    -0.762000000     7.339000000
H     4.429000000    -0.514000000     7.674000000
C     2.308000000     0.168000000     7.287000000
H     2.342000000     1.187000000     7.663000000
C     1.195000000    -0.208000000     6.537000000
O     0.125000000     0.649000000     6.383000000
C     0.028000000     1.682000000     5.487000000
C    -1.056000000     2.587000000     5.588000000
H    -1.773000000     2.480000000     6.398000000
C    -1.100000000     3.646000000     4.681000000
O    -2.157000000     4.446000000     4.692000000
C    -2.621000000     5.238000000     3.738000000
C    -3.564000000     4.722000000     2.797000000
H    -3.747000000     3.652000000     2.749000000
C    -2.314000000     6.633000000     3.729000000
H    -1.633000000     7.022000000     4.481000000
C    -3.031000000     7.503000000     2.980000000
H    -2.859000000     8.576000000     2.992000000
C    -3.995000000     7.046000000     2.011000000
H    -4.503000000     7.689000000     1.296000000
C    -4.216000000     5.641000000     1.964000000
O    -5.060000000     5.169000000     0.982000000
C    -4.764000000     4.187000000     0.075000000
C    -5.643000000     3.206000000    -0.200000000
H    -6.571000000     3.257000000     0.365000000
C    -5.307000000     2.264000000    -1.129000000
O    -6.230000000     1.238000000    -1.436000000
C    -6.078000000     0.400000000    -2.525000000
C    -5.702000000    -0.961000000    -2.405000000
H    -5.492000000    -1.296000000    -1.392000000
C    -6.341000000     0.878000000    -3.831000000
H    -6.728000000     1.891000000    -3.765000000
C    -6.204000000     0.018000000    -4.894000000
H    -6.473000000     0.453000000    -5.853000000
C    -5.819000000    -1.274000000    -4.707000000
H    -5.752000000    -1.888000000    -5.602000000
C    -5.571000000    -1.793000000    -3.484000000
O    -5.231000000    -3.130000000    -3.358000000
C    -3.959000000    -3.652000000    -3.173000000
C    -3.756000000    -4.888000000    -2.555000000
H    -4.590000000    -5.560000000    -2.366000000
C    -2.476000000    -5.341000000    -2.228000000
O    -2.391000000    -6.563000000    -1.553000000
C    -1.229000000    -6.974000000    -0.952000000
C    -0.227000000    -7.562000000    -1.700000000
H    -0.421000000    -7.875000000    -2.723000000
C     0.931000000    -7.840000000    -1.006000000
H     1.739000000    -8.266000000    -1.595000000
C     1.193000000    -7.482000000     0.281000000
H     2.186000000    -7.553000000     0.717000000
C     0.176000000    -6.832000000     0.936000000
C    -1.045000000    -6.630000000     0.366000000
H    -1.785000000    -6.138000000     0.991000000
C    -2.737000000    -1.221000000     0.103000000
H    -3.772000000    -0.974000000    -0.122000000
C    -1.707000000    -0.315000000    -0.236000000
H    -1.884000000     0.665000000    -0.672000000
C    -0.376000000    -0.784000000    -0.199000000
C     0.747000000     0.089000000    -0.623000000
H     0.715000000     1.172000000    -0.486000000
H     1.620000000    -0.201000000    -0.035000000
H     0.974000000    -0.190000000    -1.654000000
C    -0.106000000    -2.036000000     0.332000000
H     0.913000000    -2.375000000     0.503000000
C    -1.111000000    -2.885000000     0.710000000
H    -0.862000000    -3.855000000     1.132000000
C    -2.439000000    -2.499000000     0.566000000
C    -3.551000000    -3.489000000     0.900000000
O    -3.197000000    -4.401000000     1.604000000
O    -4.698000000    -3.287000000     0.554000000
O    -6.981000000    -3.343000000    -0.702000000
H    -6.156000000    -3.155000000    -0.256000000
H    -6.724000000    -3.574000000    -1.595000000
O    -7.220000000    -2.966000000     4.688000000
H    -7.464000000    -3.869000000     4.889000000
H    -6.596000000    -3.041000000     3.967000000
O    -5.108000000    -2.739000000     6.740000000
H    -5.726000000    -3.459000000     6.861000000
H    -4.916000000    -2.741000000     5.803000000
O    -1.957000000    -3.020000000     5.189000000
H    -2.868000000    -2.819000000     4.977000000
H    -1.726000000    -3.738000000     4.599000000
O    -3.626000000    -7.920000000     2.185000000
H    -2.934000000    -8.141000000     2.808000000
H    -3.604000000    -6.965000000     2.132000000
O    -4.013000000    -9.449000000     0.227000000
H    -3.908000000    -8.877000000     0.987000000
H    -3.655000000    -8.945000000    -0.504000000
O    -3.935000000    -7.611000000     5.741000000
H    -4.392000000    -6.963000000     5.204000000
H    -3.102000000    -7.751000000     5.291000000
O    -4.510000000    -3.761000000     3.942000000
H    -4.100000000    -3.947000000     3.097000000
H    -4.817000000    -4.613000000     4.251000000
O    -7.333000000    -0.266000000     5.525000000
H    -7.176000000    -1.154000000     5.204000000
H    -7.469000000     0.254000000     4.733000000
O    -3.455000000     1.075000000     4.181000000
H    -2.810000000     0.989000000     3.479000000
H    -4.295000000     1.151000000     3.727000000
O    -9.021000000    -2.000000000     0.402000000
H    -8.454000000    -2.135000000    -0.357000000
H    -9.195000000    -1.059000000     0.406000000
O    -7.228000000    -6.326000000    -1.765000000
H    -6.798000000    -6.132000000    -0.933000000
H    -6.705000000    -7.031000000    -2.147000000
O    -5.419000000     1.431000000     2.365000000
H    -6.247000000     1.712000000     2.752000000
H    -5.656000000     0.697000000     1.798000000
O    -5.784000000    -6.444000000     3.888000000
H    -6.662000000    -6.276000000     4.230000000
H    -5.912000000    -6.557000000     2.946000000
O    -7.769000000    -4.576000000     2.136000000
H    -8.341000000    -3.809000000     2.093000000
H    -8.145000000    -5.116000000     2.830000000
O    -6.217000000    -1.798000000     2.080000000
H    -7.045000000    -1.912000000     1.615000000
H    -5.612000000    -2.396000000     1.642000000
O    -6.521000000    -5.798000000    -4.193000000
H    -7.211000000    -5.257000000    -4.578000000
H    -6.763000000    -5.872000000    -3.270000000
O    -2.032000000    -5.507000000     3.629000000
H    -2.484000000    -5.139000000     2.870000000
H    -1.173000000    -5.766000000     3.295000000
O    -5.743000000    -5.915000000     0.922000000
H    -5.001000000    -5.327000000     0.778000000
H    -6.461000000    -5.337000000     1.177000000
