218
-1464.04668
C    -0.488000000     3.200000000     4.111000000
H    -0.747000000     3.895000000     3.316000000
C     0.698000000     2.470000000     4.069000000
C     0.889000000     1.345000000     4.916000000
H     1.785000000     0.740000000     4.806000000
C     1.629000000     2.578000000     2.774000000
O     1.653000000     3.979000000     2.340000000
H     1.385000000     1.904000000     1.939000000
O     3.060000000     2.262000000     3.143000000
C     3.731000000     1.421000000     2.269000000
C     3.769000000     0.050000000     2.478000000
H     3.243000000    -0.399000000     3.316000000
C     4.428000000    -0.706000000     1.527000000
O     4.305000000    -2.078000000     1.685000000
C     4.916000000    -0.149000000     0.270000000
C     5.328000000    -1.059000000    -0.884000000
H     6.121000000    -0.488000000    -1.371000000
C     4.221000000    -1.522000000    -1.741000000
C     4.098000000    -0.899000000    -2.992000000
H     4.660000000    -0.022000000    -3.303000000
H     5.641000000    -2.023000000    -0.477000000
C     4.774000000     1.226000000     0.028000000
H     5.281000000     1.680000000    -0.819000000
C     4.178000000     1.939000000     1.043000000
C     4.180000000     3.449000000     0.834000000
H     4.935000000     3.695000000     0.084000000
H     4.431000000     4.026000000     1.726000000
C     2.830000000     3.973000000     0.236000000
C     2.739000000     4.149000000    -1.147000000
H     3.608000000     3.951000000    -1.768000000
C     1.673000000     4.221000000     0.972000000
C     0.430000000     4.401000000     0.404000000
H    -0.460000000     4.359000000     1.027000000
C     0.303000000     4.515000000    -0.995000000
O    -0.894000000     4.632000000    -1.532000000
C    -1.619000000     3.494000000    -2.114000000
C    -3.089000000     3.753000000    -1.810000000
C    -4.147000000     3.059000000    -2.519000000
H    -3.779000000     2.414000000    -3.313000000
C    -3.442000000     4.497000000    -0.601000000
H    -2.641000000     4.872000000     0.031000000
O    -1.267000000     3.515000000    -3.527000000
H    -1.239000000     2.551000000    -1.694000000
C     1.514000000     4.389000000    -1.777000000
C     1.460000000     4.295000000    -3.283000000
H     2.404000000     4.555000000    -3.768000000
H     0.788000000     5.058000000    -3.682000000
C     1.046000000     2.868000000    -3.748000000
C     2.054000000     1.933000000    -4.071000000
H     3.116000000     2.161000000    -4.055000000
C    -0.336000000     2.584000000    -3.893000000
C    -0.703000000     1.374000000    -4.381000000
H    -1.742000000     1.091000000    -4.525000000
C     0.331000000     0.411000000    -4.732000000
O    -0.165000000    -0.864000000    -5.022000000
C     0.009000000    -1.880000000    -4.004000000
C    -1.298000000    -2.683000000    -3.724000000
C    -2.493000000    -1.985000000    -3.383000000
H    -2.585000000    -0.903000000    -3.429000000
C    -1.254000000    -4.042000000    -3.434000000
H    -0.351000000    -4.621000000    -3.606000000
O     1.161000000    -2.731000000    -4.348000000
H     0.131000000    -1.371000000    -3.036000000
C     1.688000000     0.647000000    -4.529000000
C     2.718000000    -0.355000000    -5.034000000
H     3.607000000     0.176000000    -5.379000000
H     2.451000000    -0.990000000    -5.881000000
C     3.102000000    -1.286000000    -3.876000000
C     2.298000000    -2.394000000    -3.554000000
C     2.514000000    -3.088000000    -2.386000000
H     1.814000000    -3.848000000    -2.047000000
C     3.500000000    -2.677000000    -1.478000000
O     3.593000000    -3.317000000    -0.274000000
C     3.218000000    -2.734000000     0.946000000
H     2.478000000    -1.960000000     0.695000000
C     2.477000000    -3.697000000     1.898000000
C     2.441000000    -3.598000000     3.309000000
H     3.151000000    -2.948000000     3.813000000
C     1.636000000    -4.623000000     1.310000000
H     1.483000000    -4.546000000     0.237000000
C     0.981000000    -5.647000000     2.098000000
O     0.364000000    -6.737000000     1.594000000
C     1.043000000    -5.556000000     3.532000000
H     0.586000000    -6.328000000     4.147000000
C     1.718000000    -4.498000000     4.117000000
O     1.790000000    -4.482000000     5.493000000
C     1.883000000    -3.298000000     6.223000000
C     0.916000000    -2.329000000     6.007000000
H    -0.003000000    -2.565000000     5.476000000
C     3.077000000    -2.922000000     6.844000000
H     3.925000000    -3.586000000     6.984000000
C     3.209000000    -1.657000000     7.424000000
H     4.172000000    -1.457000000     7.887000000
C     2.165000000    -0.719000000     7.284000000
H     2.209000000     0.241000000     7.792000000
C     1.056000000    -1.070000000     6.551000000
O    -0.076000000    -0.236000000     6.532000000
C    -0.151000000     1.037000000     5.815000000
C    -1.295000000     1.810000000     5.894000000
H    -2.151000000     1.556000000     6.513000000
C    -1.528000000     2.759000000     4.949000000
O    -2.823000000     3.316000000     4.827000000
C    -3.139000000     4.390000000     3.997000000
C    -3.977000000     4.184000000     2.983000000
H    -4.455000000     3.234000000     2.757000000
C    -2.738000000     5.692000000     4.257000000
H    -2.054000000     5.874000000     5.082000000
C    -3.180000000     6.744000000     3.468000000
H    -2.833000000     7.763000000     3.620000000
C    -4.086000000     6.524000000     2.424000000
H    -4.461000000     7.349000000     1.823000000
C    -4.380000000     5.188000000     2.132000000
O    -5.218000000     4.959000000     1.032000000
C    -4.765000000     4.462000000    -0.175000000
C    -5.733000000     3.782000000    -0.934000000
H    -6.755000000     3.855000000    -0.571000000
C    -5.429000000     3.123000000    -2.098000000
O    -6.416000000     2.380000000    -2.703000000
C    -6.208000000     1.167000000    -3.349000000
C    -5.538000000     0.109000000    -2.694000000
H    -5.369000000     0.464000000    -1.680000000
C    -6.606000000     1.013000000    -4.681000000
H    -7.086000000     1.769000000    -5.296000000
C    -6.580000000    -0.279000000    -5.225000000
H    -7.050000000    -0.416000000    -6.196000000
C    -5.937000000    -1.342000000    -4.529000000
H    -5.872000000    -2.323000000    -4.993000000
C    -5.342000000    -1.091000000    -3.245000000
O    -4.726000000    -2.108000000    -2.535000000
C    -3.549000000    -2.759000000    -2.862000000
C    -3.400000000    -4.088000000    -2.540000000
H    -4.242000000    -4.634000000    -2.122000000
C    -2.237000000    -4.778000000    -2.794000000
O    -2.097000000    -6.113000000    -2.465000000
C    -1.015000000    -6.637000000    -1.808000000
C    -0.118000000    -7.450000000    -2.484000000
H    -0.228000000    -7.706000000    -3.534000000
C     0.951000000    -7.929000000    -1.787000000
H     1.653000000    -8.568000000    -2.316000000
C     1.146000000    -7.673000000    -0.484000000
H     1.861000000    -8.175000000     0.162000000
C     0.246000000    -6.910000000     0.267000000
C    -0.857000000    -6.313000000    -0.467000000
H    -1.578000000    -5.622000000    -0.037000000
C    -2.529000000     0.240000000     0.026000000
H    -3.435000000     0.833000000    -0.067000000
C    -1.247000000     0.755000000    -0.018000000
H    -0.983000000     1.809000000    -0.026000000
C    -0.183000000    -0.123000000    -0.082000000
C     1.185000000     0.395000000    -0.336000000
H     1.351000000     0.279000000    -1.409000000
H     1.318000000     1.456000000    -0.117000000
H     1.887000000    -0.173000000     0.280000000
C    -0.386000000    -1.509000000    -0.040000000
H     0.493000000    -2.139000000    -0.149000000
C    -1.679000000    -2.062000000    -0.069000000
H    -1.936000000    -3.118000000    -0.094000000
C    -2.739000000    -1.158000000     0.072000000
C    -4.100000000    -1.641000000     0.484000000
O    -4.316000000    -2.801000000     0.717000000
O    -4.930000000    -0.852000000     0.994000000
O    -4.696000000    -5.313000000     0.723000000
H    -4.584000000    -4.367000000     0.629000000
H    -5.405000000    -5.408000000     1.359000000
O    -7.060000000     0.617000000     1.956000000
H    -6.428000000     0.091000000     1.466000000
H    -7.636000000    -0.025000000     2.370000000
O    -2.544000000    -1.991000000     5.157000000
H    -2.984000000    -1.307000000     4.653000000
H    -2.704000000    -2.794000000     4.662000000
O    -7.167000000    -4.139000000    -0.780000000
H    -6.482000000    -4.493000000    -0.213000000
H    -7.658000000    -4.908000000    -1.071000000
O    -7.878000000    -2.640000000     4.306000000
H    -7.025000000    -2.389000000     4.660000000
H    -8.249000000    -1.824000000     3.972000000
O    -6.338000000    -3.964000000     2.405000000
H    -7.176000000    -3.678000000     2.769000000
H    -6.045000000    -3.227000000     1.869000000
O    -6.650000000    -4.708000000    -3.762000000
H    -6.386000000    -3.976000000    -3.205000000
H    -7.597000000    -4.609000000    -3.855000000
O    -7.285000000    -6.963000000    -0.955000000
H    -7.485000000    -7.835000000    -0.617000000
H    -6.341000000    -6.979000000    -1.116000000
O    -9.301000000     2.315000000     1.660000000
H    -9.623000000     2.974000000     2.275000000
H    -8.430000000     2.089000000     1.987000000
O    -3.716000000    -0.286000000     3.399000000
H    -4.217000000    -0.626000000     2.658000000
H    -3.030000000     0.249000000     2.998000000
O    -3.608000000    -6.216000000     4.985000000
H    -3.395000000    -5.829000000     4.136000000
H    -4.536000000    -6.018000000     5.113000000
O    -5.677000000    -1.640000000     5.588000000
H    -5.923000000    -0.995000000     6.252000000
H    -4.774000000    -1.872000000     5.804000000
O    -8.391000000     1.118000000    -0.584000000
H    -7.981000000     0.280000000    -0.370000000
H    -8.714000000     1.448000000     0.254000000
O    -9.472000000    -0.819000000     2.825000000
H    -9.806000000    -0.228000000     3.499000000
H   -10.115000000    -0.762000000     2.117000000
O    -7.361000000    -1.579000000    -0.054000000
H    -7.399000000    -2.504000000    -0.297000000
H    -6.427000000    -1.394000000     0.042000000
O    -3.644000000    -3.815000000     3.236000000
H    -4.508000000    -4.132000000     3.499000000
H    -3.742000000    -3.589000000     2.311000000
O    -5.892000000     1.406000000     4.124000000
H    -5.194000000     0.752000000     4.170000000
H    -6.291000000     1.270000000     3.264000000
O   -10.636000000    -2.489000000    -1.568000000
H    -9.905000000    -2.984000000    -1.197000000
H   -10.486000000    -2.513000000    -2.513000000
O    -4.044000000    -7.754000000    -0.368000000
H    -3.125000000    -7.912000000    -0.150000000
H    -4.175000000    -6.822000000    -0.192000000
