218
-1469.15101
C    -1.488000000     2.753000000     3.790000000
H    -1.807000000     3.113000000     2.815000000
C    -0.134000000     2.587000000     4.032000000
C     0.242000000     1.873000000     5.130000000
H     1.270000000     1.741000000     5.459000000
C     0.891000000     2.939000000     2.913000000
O     0.789000000     4.298000000     2.507000000
H     0.794000000     2.184000000     2.119000000
O     2.253000000     2.657000000     3.338000000
C     3.188000000     2.129000000     2.557000000
C     3.495000000     0.747000000     2.613000000
H     3.022000000     0.117000000     3.362000000
C     4.224000000     0.117000000     1.584000000
O     4.367000000    -1.244000000     1.652000000
C     4.733000000     0.826000000     0.554000000
C     5.575000000     0.123000000    -0.551000000
H     6.321000000     0.854000000    -0.871000000
C     4.665000000    -0.473000000    -1.548000000
C     4.364000000     0.231000000    -2.723000000
H     4.718000000     1.256000000    -2.806000000
H     6.137000000    -0.679000000    -0.069000000
C     4.346000000     2.192000000     0.448000000
H     4.691000000     2.681000000    -0.459000000
C     3.744000000     2.880000000     1.484000000
C     3.349000000     4.341000000     1.248000000
H     4.156000000     4.870000000     0.737000000
H     3.254000000     4.864000000     2.202000000
C     2.076000000     4.527000000     0.447000000
C     2.142000000     4.564000000    -0.926000000
H     3.149000000     4.473000000    -1.326000000
C     0.880000000     4.559000000     1.165000000
C    -0.311000000     4.681000000     0.476000000
H    -1.279000000     4.671000000     0.969000000
C    -0.265000000     4.678000000    -0.933000000
O    -1.518000000     4.660000000    -1.494000000
C    -1.949000000     3.282000000    -1.835000000
C    -3.421000000     3.168000000    -1.519000000
C    -4.141000000     2.193000000    -2.265000000
H    -3.699000000     1.604000000    -3.065000000
C    -4.046000000     3.956000000    -0.588000000
H    -3.475000000     4.633000000     0.042000000
O    -1.663000000     3.108000000    -3.286000000
H    -1.378000000     2.537000000    -1.261000000
C     0.944000000     4.625000000    -1.664000000
C     0.889000000     4.593000000    -3.174000000
H     1.828000000     5.062000000    -3.474000000
H     0.126000000     5.281000000    -3.545000000
C     0.759000000     3.167000000    -3.727000000
C     1.857000000     2.468000000    -4.154000000
H     2.796000000     3.008000000    -4.061000000
C    -0.496000000     2.528000000    -3.732000000
C    -0.612000000     1.256000000    -4.202000000
H    -1.537000000     0.686000000    -4.184000000
C     0.498000000     0.569000000    -4.653000000
O     0.324000000    -0.712000000    -4.945000000
C     0.824000000    -1.631000000    -3.904000000
C    -0.063000000    -2.718000000    -3.599000000
C    -1.428000000    -2.345000000    -3.373000000
H    -1.740000000    -1.304000000    -3.389000000
C     0.370000000    -4.022000000    -3.427000000
H     1.359000000    -4.348000000    -3.739000000
O     2.084000000    -2.050000000    -4.328000000
H     0.921000000    -1.021000000    -2.994000000
C     1.812000000     1.161000000    -4.561000000
C     3.074000000     0.465000000    -4.933000000
H     3.899000000     1.146000000    -5.149000000
H     2.990000000    -0.298000000    -5.710000000
C     3.538000000    -0.314000000    -3.681000000
C     3.063000000    -1.636000000    -3.486000000
C     3.329000000    -2.341000000    -2.364000000
H     2.845000000    -3.300000000    -2.198000000
C     4.180000000    -1.820000000    -1.388000000
O     4.332000000    -2.649000000    -0.281000000
C     3.594000000    -2.134000000     0.779000000
H     2.805000000    -1.515000000     0.327000000
C     2.680000000    -3.103000000     1.537000000
C     1.627000000    -2.747000000     2.388000000
H     1.393000000    -1.694000000     2.525000000
C     2.771000000    -4.511000000     1.259000000
H     3.482000000    -4.817000000     0.496000000
C     1.869000000    -5.415000000     1.863000000
O     1.990000000    -6.727000000     1.494000000
C     0.951000000    -4.971000000     2.850000000
H     0.331000000    -5.726000000     3.324000000
C     0.814000000    -3.644000000     3.076000000
O    -0.034000000    -3.202000000     3.980000000
C     0.393000000    -2.613000000     5.207000000
C    -0.186000000    -1.435000000     5.583000000
H    -0.943000000    -0.989000000     4.944000000
C     1.434000000    -3.178000000     5.976000000
H     1.953000000    -4.051000000     5.588000000
C     1.890000000    -2.522000000     7.118000000
H     2.776000000    -2.811000000     7.679000000
C     1.430000000    -1.209000000     7.409000000
H     1.736000000    -0.605000000     8.259000000
C     0.266000000    -0.763000000     6.694000000
O    -0.271000000     0.476000000     6.974000000
C    -0.672000000     1.294000000     5.963000000
C    -2.033000000     1.527000000     5.804000000
H    -2.713000000     0.963000000     6.437000000
C    -2.443000000     2.228000000     4.695000000
O    -3.773000000     2.333000000     4.510000000
C    -4.395000000     3.414000000     3.862000000
C    -4.832000000     3.269000000     2.591000000
H    -4.628000000     2.343000000     2.060000000
C    -4.531000000     4.639000000     4.586000000
H    -4.404000000     4.673000000     5.665000000
C    -5.102000000     5.762000000     3.901000000
H    -5.347000000     6.630000000     4.509000000
C    -5.526000000     5.640000000     2.587000000
H    -5.813000000     6.543000000     2.054000000
C    -5.385000000     4.411000000     1.937000000
O    -5.946000000     4.446000000     0.674000000
C    -5.374000000     3.678000000    -0.246000000
C    -6.038000000     2.635000000    -0.869000000
H    -7.066000000     2.432000000    -0.579000000
C    -5.455000000     1.921000000    -1.934000000
O    -6.185000000     0.883000000    -2.551000000
C    -5.676000000    -0.145000000    -3.326000000
C    -4.977000000    -1.158000000    -2.650000000
H    -4.865000000    -1.008000000    -1.579000000
C    -5.775000000    -0.229000000    -4.755000000
H    -6.456000000     0.457000000    -5.253000000
C    -5.104000000    -1.328000000    -5.365000000
H    -5.030000000    -1.246000000    -6.446000000
C    -4.388000000    -2.302000000    -4.653000000
H    -3.745000000    -2.987000000    -5.199000000
C    -4.375000000    -2.197000000    -3.307000000
O    -3.593000000    -3.069000000    -2.568000000
C    -2.314000000    -3.376000000    -2.898000000
C    -1.859000000    -4.659000000    -2.698000000
H    -2.527000000    -5.360000000    -2.204000000
C    -0.520000000    -4.992000000    -2.994000000
O    -0.068000000    -6.310000000    -2.951000000
C     0.827000000    -6.901000000    -2.014000000
C     1.700000000    -7.882000000    -2.429000000
H     1.566000000    -8.235000000    -3.448000000
C     2.594000000    -8.560000000    -1.610000000
H     3.307000000    -9.239000000    -2.071000000
C     2.744000000    -8.146000000    -0.275000000
H     3.445000000    -8.399000000     0.517000000
C     1.900000000    -7.110000000     0.170000000
C     0.862000000    -6.525000000    -0.674000000
H     0.234000000    -5.698000000    -0.353000000
C    -2.109000000    -0.495000000     0.897000000
H    -2.925000000     0.032000000     1.386000000
C    -1.048000000     0.280000000     0.496000000
H    -1.002000000     1.348000000     0.692000000
C     0.031000000    -0.374000000    -0.118000000
C     1.160000000     0.397000000    -0.641000000
H     2.005000000    -0.172000000    -1.034000000
H     0.762000000     1.017000000    -1.447000000
H     1.546000000     1.074000000     0.124000000
C    -0.042000000    -1.779000000    -0.335000000
H     0.804000000    -2.244000000    -0.833000000
C    -1.178000000    -2.510000000    -0.072000000
H    -1.215000000    -3.581000000    -0.251000000
C    -2.232000000    -1.860000000     0.553000000
C    -3.457000000    -2.621000000     0.905000000
O    -3.520000000    -3.803000000     0.587000000
O    -4.259000000    -2.069000000     1.641000000
O    -5.707000000    -8.889000000     0.878000000
H    -6.004000000    -8.446000000     0.083000000
H    -4.932000000    -9.380000000     0.603000000
O    -7.478000000    -2.169000000     3.883000000
H    -7.429000000    -2.556000000     3.009000000
H    -6.844000000    -1.452000000     3.863000000
O    -1.947000000    -5.965000000     1.213000000
H    -2.629000000    -6.505000000     1.614000000
H    -2.381000000    -5.133000000     1.026000000
O    -6.085000000    -0.125000000     2.211000000
H    -5.400000000    -0.777000000     2.064000000
H    -6.647000000    -0.190000000     1.438000000
O    -5.681000000    -4.668000000    -0.753000000
H    -6.286000000    -4.053000000    -0.338000000
H    -4.815000000    -4.387000000    -0.457000000
O    -6.261000000    -4.228000000     5.315000000
H    -5.439000000    -3.959000000     4.906000000
H    -6.887000000    -3.548000000     5.065000000
O    -0.998000000    -8.102000000     3.097000000
H    -1.074000000    -7.242000000     2.685000000
H    -1.889000000    -8.313000000     3.377000000
O    -6.820000000    -7.546000000    -1.219000000
H    -6.376000000    -6.698000000    -1.189000000
H    -7.072000000    -7.652000000    -2.136000000
O    -5.317000000    -4.736000000     2.385000000
H    -4.767000000    -4.237000000     1.780000000
H    -6.208000000    -4.445000000     2.194000000
O    -5.176000000    -5.821000000    -3.155000000
H    -4.824000000    -5.214000000    -3.806000000
H    -5.336000000    -5.277000000    -2.384000000
O    -7.507000000    -3.252000000     1.284000000
H    -7.590000000    -2.356000000     0.958000000
H    -8.276000000    -3.705000000     0.938000000
O    -7.976000000     1.205000000     3.428000000
H    -7.225000000     0.670000000     3.170000000
H    -8.511000000     1.265000000     2.637000000
O    -2.769000000    -4.479000000     5.659000000
H    -1.887000000    -4.346000000     5.313000000
H    -2.956000000    -5.402000000     5.491000000
O    -3.182000000    -7.210000000     5.271000000
H    -3.396000000    -7.304000000     4.342000000
H    -3.052000000    -8.107000000     5.579000000
O    -7.774000000    -0.897000000     0.306000000
H    -7.971000000    -1.343000000    -0.518000000
H    -8.435000000    -0.208000000     0.368000000
O    -3.887000000    -2.277000000     4.265000000
H    -3.856000000    -2.313000000     3.309000000
H    -3.520000000    -3.115000000     4.547000000
O    -8.338000000    -2.839000000    -1.662000000
H    -9.254000000    -3.034000000    -1.861000000
H    -7.866000000    -3.055000000    -2.467000000
O    -4.235000000    -7.250000000     2.711000000
H    -4.800000000    -7.775000000     2.144000000
H    -4.519000000    -6.348000000     2.563000000
O    -4.992000000    -0.397000000     5.708000000
H    -4.597000000    -1.023000000     5.100000000
H    -4.959000000     0.440000000     5.244000000
