218
-1472.99233
C    -1.336000000     2.113000000     4.008000000
H    -1.754000000     2.816000000     3.292000000
C     0.058000000     1.956000000     4.151000000
C     0.521000000     1.035000000     5.086000000
H     1.574000000     0.788000000     5.202000000
C     0.997000000     2.572000000     3.090000000
O     0.532000000     3.879000000     2.684000000
H     0.966000000     1.903000000     2.217000000
O     2.335000000     2.658000000     3.581000000
C     3.223000000     2.199000000     2.684000000
C     3.538000000     0.823000000     2.782000000
H     3.200000000     0.268000000     3.653000000
C     4.330000000     0.208000000     1.805000000
O     4.468000000    -1.223000000     1.896000000
C     4.693000000     0.926000000     0.696000000
C     5.488000000     0.200000000    -0.443000000
H     6.175000000     0.887000000    -0.941000000
C     4.636000000    -0.478000000    -1.481000000
C     4.228000000     0.324000000    -2.517000000
H     4.678000000     1.288000000    -2.740000000
H     6.204000000    -0.472000000     0.036000000
C     4.421000000     2.325000000     0.584000000
H     4.599000000     2.762000000    -0.395000000
C     3.631000000     2.926000000     1.552000000
C     3.151000000     4.351000000     1.433000000
H     3.925000000     4.990000000     1.002000000
H     2.999000000     4.799000000     2.417000000
C     1.812000000     4.490000000     0.712000000
C     1.831000000     4.777000000    -0.635000000
H     2.746000000     4.991000000    -1.183000000
C     0.580000000     4.294000000     1.364000000
C    -0.648000000     4.352000000     0.726000000
H    -1.584000000     4.248000000     1.269000000
C    -0.644000000     4.579000000    -0.668000000
O    -1.852000000     4.509000000    -1.296000000
C    -2.196000000     3.239000000    -1.863000000
C    -3.650000000     2.923000000    -1.614000000
C    -4.405000000     2.162000000    -2.502000000
H    -4.018000000     2.038000000    -3.510000000
C    -4.137000000     3.220000000    -0.360000000
H    -3.457000000     3.611000000     0.393000000
O    -2.004000000     3.263000000    -3.304000000
H    -1.657000000     2.350000000    -1.506000000
C     0.589000000     4.785000000    -1.387000000
C     0.486000000     4.812000000    -2.901000000
H     1.316000000     5.418000000    -3.269000000
H    -0.379000000     5.416000000    -3.184000000
C     0.443000000     3.417000000    -3.501000000
C     1.600000000     2.690000000    -3.796000000
H     2.548000000     3.195000000    -3.633000000
C    -0.867000000     2.802000000    -3.780000000
C    -0.864000000     1.508000000    -4.327000000
H    -1.865000000     1.141000000    -4.537000000
C     0.284000000     0.830000000    -4.674000000
O     0.246000000    -0.548000000    -4.926000000
C     0.471000000    -1.507000000    -3.925000000
C    -0.627000000    -2.540000000    -3.983000000
C    -1.904000000    -2.269000000    -4.465000000
H    -2.120000000    -1.317000000    -4.943000000
C    -0.490000000    -3.735000000    -3.228000000
H     0.506000000    -4.038000000    -2.914000000
O     1.829000000    -2.005000000    -4.136000000
H     0.406000000    -0.998000000    -2.952000000
C     1.523000000     1.430000000    -4.354000000
C     2.895000000     0.728000000    -4.629000000
H     3.687000000     1.478000000    -4.673000000
H     3.027000000     0.170000000    -5.558000000
C     3.319000000    -0.153000000    -3.429000000
C     2.748000000    -1.473000000    -3.244000000
C     3.211000000    -2.238000000    -2.212000000
H     2.827000000    -3.248000000    -2.092000000
C     4.042000000    -1.708000000    -1.245000000
O     4.249000000    -2.496000000    -0.135000000
C     3.569000000    -2.026000000     1.122000000
H     2.658000000    -1.431000000     0.962000000
C     3.140000000    -3.264000000     1.862000000
C     3.071000000    -3.274000000     3.258000000
H     3.398000000    -2.428000000     3.857000000
C     2.641000000    -4.408000000     1.158000000
H     2.867000000    -4.534000000     0.103000000
C     2.108000000    -5.520000000     1.875000000
O     1.741000000    -6.705000000     1.301000000
C     2.100000000    -5.467000000     3.265000000
H     1.873000000    -6.349000000     3.858000000
C     2.565000000    -4.352000000     3.961000000
O     2.469000000    -4.348000000     5.334000000
C     2.428000000    -3.215000000     6.138000000
C     1.272000000    -2.491000000     6.016000000
H     0.416000000    -2.895000000     5.482000000
C     3.541000000    -2.786000000     6.850000000
H     4.483000000    -3.321000000     6.763000000
C     3.416000000    -1.605000000     7.609000000
H     4.201000000    -1.242000000     8.269000000
C     2.203000000    -0.881000000     7.582000000
H     2.005000000    -0.136000000     8.348000000
C     1.178000000    -1.293000000     6.773000000
O    -0.034000000    -0.685000000     6.774000000
C    -0.372000000     0.301000000     5.868000000
C    -1.737000000     0.581000000     5.800000000
H    -2.491000000     0.097000000     6.416000000
C    -2.236000000     1.482000000     4.885000000
O    -3.523000000     1.890000000     5.080000000
C    -4.110000000     2.806000000     4.233000000
C    -4.908000000     2.472000000     3.110000000
H    -4.978000000     1.455000000     2.733000000
C    -3.874000000     4.160000000     4.501000000
H    -3.248000000     4.373000000     5.363000000
C    -4.260000000     5.178000000     3.598000000
H    -3.913000000     6.168000000     3.883000000
C    -5.038000000     4.837000000     2.489000000
H    -5.347000000     5.599000000     1.778000000
C    -5.334000000     3.506000000     2.273000000
O    -6.092000000     3.151000000     1.168000000
C    -5.408000000     2.760000000     0.054000000
C    -6.167000000     2.010000000    -0.812000000
H    -7.166000000     1.684000000    -0.534000000
C    -5.667000000     1.676000000    -2.095000000
O    -6.381000000     0.908000000    -2.963000000
C    -5.877000000     0.106000000    -3.995000000
C    -5.199000000    -1.111000000    -3.835000000
H    -4.901000000    -1.420000000    -2.836000000
C    -6.002000000     0.596000000    -5.261000000
H    -6.393000000     1.595000000    -5.431000000
C    -5.645000000    -0.153000000    -6.394000000
H    -5.950000000     0.270000000    -7.348000000
C    -4.983000000    -1.376000000    -6.220000000
H    -4.686000000    -1.987000000    -7.069000000
C    -4.729000000    -1.822000000    -4.936000000
O    -4.090000000    -2.949000000    -4.934000000
C    -2.940000000    -3.146000000    -4.264000000
C    -2.834000000    -4.350000000    -3.529000000
H    -3.689000000    -5.010000000    -3.406000000
C    -1.525000000    -4.636000000    -3.029000000
O    -1.432000000    -5.805000000    -2.243000000
C    -0.229000000    -6.309000000    -1.824000000
C     0.777000000    -6.574000000    -2.744000000
H     0.517000000    -6.338000000    -3.772000000
C     2.090000000    -6.857000000    -2.417000000
H     2.849000000    -6.968000000    -3.187000000
C     2.366000000    -6.960000000    -1.022000000
H     3.413000000    -7.036000000    -0.737000000
C     1.371000000    -6.723000000    -0.065000000
C     0.046000000    -6.474000000    -0.468000000
H    -0.718000000    -6.359000000     0.297000000
C    -2.961000000    -0.768000000     0.525000000
H    -3.918000000    -0.332000000     0.804000000
C    -1.940000000     0.130000000     0.350000000
H    -2.092000000     1.206000000     0.354000000
C    -0.741000000    -0.340000000    -0.130000000
C     0.449000000     0.598000000    -0.251000000
H     0.154000000     1.533000000     0.230000000
H     1.237000000     0.201000000     0.393000000
H     0.740000000     0.851000000    -1.273000000
C    -0.550000000    -1.692000000    -0.355000000
H     0.399000000    -2.090000000    -0.706000000
C    -1.599000000    -2.586000000    -0.013000000
H    -1.501000000    -3.654000000    -0.195000000
C    -2.854000000    -2.097000000     0.389000000
C    -4.009000000    -3.101000000     0.673000000
O    -3.816000000    -4.287000000     0.671000000
O    -5.072000000    -2.602000000     0.903000000
O    -2.309000000    -8.481000000     1.884000000
H    -2.438000000    -7.740000000     2.477000000
H    -2.746000000    -8.219000000     1.074000000
O    -3.493000000    -5.829000000     2.893000000
H    -3.400000000    -5.143000000     2.232000000
H    -4.301000000    -6.284000000     2.654000000
O   -10.196000000    -1.994000000     1.058000000
H    -9.315000000    -1.678000000     0.857000000
H   -10.736000000    -1.204000000     1.076000000
O    -6.044000000    -5.922000000    -2.647000000
H    -6.164000000    -5.549000000    -1.774000000
H    -5.213000000    -6.394000000    -2.594000000
O    -7.573000000    -1.401000000     0.182000000
H    -7.522000000    -1.827000000    -0.674000000
H    -6.883000000    -1.818000000     0.698000000
O    -4.956000000    -1.929000000     3.456000000
H    -4.114000000    -2.227000000     3.800000000
H    -4.970000000    -2.245000000     2.552000000
O    -3.882000000    -6.836000000     0.085000000
H    -4.074000000    -6.939000000    -0.847000000
H    -3.848000000    -5.889000000     0.219000000
O    -7.784000000    -4.409000000     5.275000000
H    -7.842000000    -4.409000000     4.319000000
H    -6.949000000    -4.838000000     5.464000000
O    -8.167000000     0.834000000     2.075000000
H    -8.103000000     0.362000000     1.244000000
H    -8.286000000     1.749000000     1.822000000
O    -8.202000000    -3.490000000    -1.545000000
H    -8.958000000    -4.077000000    -1.538000000
H    -7.453000000    -4.061000000    -1.377000000
O    -5.328000000    -5.483000000     5.023000000
H    -4.812000000    -5.140000000     4.293000000
H    -5.152000000    -6.424000000     5.020000000
O    -5.632000000    -7.254000000     2.119000000
H    -5.075000000    -7.284000000     1.341000000
H    -6.413000000    -7.750000000     1.874000000
O    -2.183000000    -6.040000000     5.673000000
H    -2.396000000    -6.374000000     4.801000000
H    -2.774000000    -6.511000000     6.260000000
O    -2.976000000    -3.258000000     4.899000000
H    -2.469000000    -4.036000000     4.670000000
H    -2.690000000    -3.037000000     5.786000000
O    -3.746000000    -7.538000000    -2.563000000
H    -3.809000000    -7.610000000    -3.515000000
H    -2.806000000    -7.542000000    -2.384000000
O    -6.500000000    -4.759000000    -0.040000000
H    -6.064000000    -4.006000000     0.360000000
H    -7.108000000    -5.068000000     0.632000000
O    -6.942000000    -0.178000000     4.415000000
H    -6.122000000    -0.614000000     4.184000000
H    -7.359000000     0.009000000     3.574000000
O    -9.273000000    -2.104000000    -3.740000000
H   -10.191000000    -2.373000000    -3.696000000
H    -8.824000000    -2.687000000    -3.129000000
O    -6.716000000    -4.606000000    -4.805000000
H    -6.079000000    -3.927000000    -5.030000000
H    -6.464000000    -4.888000000    -3.926000000
