218
-1452.98577
C    -2.015000000     4.134000000     2.371000000
H    -1.786000000     4.655000000     1.445000000
C    -0.959000000     3.476000000     2.979000000
C    -1.273000000     2.705000000     4.052000000
H    -0.553000000     2.050000000     4.536000000
C     0.491000000     3.401000000     2.331000000
O     0.796000000     4.607000000     1.598000000
H     0.512000000     2.505000000     1.694000000
O     1.537000000     3.235000000     3.295000000
C     2.446000000     2.303000000     2.955000000
C     2.371000000     1.048000000     3.533000000
H     1.627000000     0.835000000     4.296000000
C     3.327000000     0.009000000     3.153000000
O     3.252000000    -1.269000000     3.607000000
C     4.333000000     0.238000000     2.187000000
C     5.161000000    -0.947000000     1.720000000
H     6.156000000    -0.660000000     1.374000000
C     4.474000000    -1.640000000     0.559000000
C     4.792000000    -1.296000000    -0.774000000
H     5.495000000    -0.478000000    -0.913000000
H     5.307000000    -1.688000000     2.509000000
C     4.302000000     1.487000000     1.623000000
H     5.037000000     1.758000000     0.870000000
C     3.440000000     2.525000000     2.006000000
C     3.637000000     3.886000000     1.404000000
H     4.682000000     4.051000000     1.130000000
H     3.413000000     4.682000000     2.117000000
C     2.703000000     4.068000000     0.187000000
C     3.183000000     3.720000000    -1.070000000
H     4.220000000     3.398000000    -1.116000000
C     1.405000000     4.528000000     0.331000000
C     0.566000000     4.641000000    -0.765000000
H    -0.441000000     5.011000000    -0.591000000
C     0.977000000     4.136000000    -2.010000000
O     0.087000000     4.085000000    -3.042000000
C    -0.340000000     2.728000000    -3.445000000
C    -1.880000000     2.655000000    -3.450000000
C    -2.535000000     1.435000000    -3.713000000
H    -1.861000000     0.582000000    -3.688000000
C    -2.731000000     3.756000000    -3.160000000
H    -2.292000000     4.740000000    -3.014000000
O     0.335000000     2.267000000    -4.602000000
H    -0.130000000     2.003000000    -2.645000000
C     2.334000000     3.753000000    -2.183000000
C     2.779000000     3.313000000    -3.498000000
H     3.820000000     3.536000000    -3.739000000
H     2.350000000     3.975000000    -4.254000000
C     2.560000000     1.843000000    -3.893000000
C     3.471000000     0.883000000    -3.583000000
H     4.318000000     1.214000000    -2.989000000
C     1.352000000     1.372000000    -4.444000000
C     1.101000000     0.053000000    -4.663000000
H     0.096000000    -0.176000000    -5.009000000
C     1.984000000    -0.946000000    -4.261000000
O     1.630000000    -2.264000000    -4.340000000
C     1.335000000    -3.013000000    -3.146000000
C     0.283000000    -4.032000000    -3.372000000
C    -0.754000000    -3.824000000    -4.279000000
H    -0.623000000    -3.009000000    -4.987000000
C     0.163000000    -5.045000000    -2.407000000
H     0.875000000    -5.147000000    -1.591000000
O     2.502000000    -3.618000000    -2.553000000
H     0.884000000    -2.387000000    -2.362000000
C     3.164000000    -0.496000000    -3.661000000
C     4.325000000    -1.414000000    -3.269000000
H     5.315000000    -0.959000000    -3.336000000
H     4.434000000    -2.299000000    -3.899000000
C     4.135000000    -1.915000000    -1.843000000
C     3.240000000    -2.972000000    -1.602000000
C     3.044000000    -3.431000000    -0.254000000
H     2.321000000    -4.220000000    -0.061000000
C     3.603000000    -2.713000000     0.819000000
O     3.132000000    -2.989000000     2.107000000
C     2.389000000    -1.972000000     2.761000000
H     1.943000000    -1.360000000     1.963000000
C     1.245000000    -2.637000000     3.541000000
C     0.814000000    -2.134000000     4.718000000
H     1.173000000    -1.151000000     5.013000000
C     0.701000000    -3.834000000     3.054000000
H     0.875000000    -4.149000000     2.028000000
C    -0.225000000    -4.542000000     3.809000000
O    -0.682000000    -5.823000000     3.378000000
C    -0.697000000    -4.091000000     5.028000000
H    -1.286000000    -4.721000000     5.690000000
C    -0.157000000    -2.843000000     5.388000000
O    -0.502000000    -2.277000000     6.619000000
C    -0.746000000    -0.963000000     6.974000000
C    -1.538000000    -0.110000000     6.176000000
H    -1.946000000    -0.616000000     5.305000000
C    -0.234000000    -0.422000000     8.132000000
H     0.412000000    -1.042000000     8.748000000
C    -0.469000000     0.878000000     8.521000000
H    -0.125000000     1.246000000     9.484000000
C    -1.402000000     1.608000000     7.842000000
H    -1.666000000     2.566000000     8.281000000
C    -1.815000000     1.180000000     6.567000000
O    -2.745000000     1.903000000     5.824000000
C    -2.512000000     2.632000000     4.676000000
C    -3.520000000     3.445000000     4.164000000
H    -4.494000000     3.495000000     4.646000000
C    -3.288000000     4.133000000     2.964000000
O    -4.264000000     4.927000000     2.428000000
C    -4.183000000     5.433000000     1.174000000
C    -4.522000000     4.644000000     0.092000000
H    -4.827000000     3.614000000     0.257000000
C    -3.793000000     6.782000000     0.947000000
H    -3.618000000     7.490000000     1.753000000
C    -3.840000000     7.316000000    -0.373000000
H    -3.559000000     8.349000000    -0.564000000
C    -4.243000000     6.484000000    -1.414000000
H    -4.338000000     6.909000000    -2.411000000
C    -4.544000000     5.178000000    -1.225000000
O    -4.911000000     4.544000000    -2.394000000
C    -4.084000000     3.485000000    -2.871000000
C    -4.640000000     2.234000000    -3.043000000
H    -5.685000000     2.024000000    -2.830000000
C    -3.897000000     1.241000000    -3.534000000
O    -4.409000000    -0.002000000    -3.782000000
C    -4.079000000    -0.947000000    -4.759000000
C    -3.614000000    -2.219000000    -4.457000000
H    -3.309000000    -2.448000000    -3.440000000
C    -4.338000000    -0.553000000    -6.071000000
H    -4.670000000     0.455000000    -6.307000000
C    -4.185000000    -1.491000000    -7.081000000
H    -4.406000000    -1.190000000    -8.101000000
C    -3.707000000    -2.785000000    -6.807000000
H    -3.781000000    -3.503000000    -7.619000000
C    -3.407000000    -3.131000000    -5.468000000
O    -2.938000000    -4.409000000    -5.211000000
C    -1.978000000    -4.552000000    -4.140000000
C    -2.077000000    -5.538000000    -3.137000000
H    -3.051000000    -5.997000000    -2.987000000
C    -1.042000000    -5.736000000    -2.277000000
O    -1.193000000    -6.581000000    -1.247000000
C    -0.420000000    -6.747000000    -0.123000000
C     0.733000000    -7.519000000    -0.139000000
H     1.043000000    -7.893000000    -1.112000000
C     1.473000000    -7.741000000     1.014000000
H     2.422000000    -8.271000000     0.985000000
C     1.032000000    -7.152000000     2.204000000
H     1.488000000    -7.467000000     3.139000000
C    -0.122000000    -6.332000000     2.263000000
C    -0.809000000    -6.169000000     1.067000000
H    -1.711000000    -5.565000000     1.021000000
C    -2.498000000    -0.005000000     1.417000000
H    -3.256000000     0.716000000     1.711000000
C    -1.458000000     0.328000000     0.585000000
H    -1.446000000     1.382000000     0.320000000
C    -0.466000000    -0.497000000     0.190000000
C     0.776000000     0.006000000    -0.523000000
H     0.700000000    -0.213000000    -1.590000000
H     0.908000000     1.075000000    -0.345000000
H     1.671000000    -0.504000000    -0.161000000
C    -0.505000000    -1.797000000     0.602000000
H     0.169000000    -2.574000000     0.250000000
C    -1.612000000    -2.269000000     1.274000000
H    -1.605000000    -3.319000000     1.555000000
C    -2.590000000    -1.365000000     1.698000000
C    -3.839000000    -1.844000000     2.338000000
O    -4.010000000    -3.016000000     2.732000000
O    -4.753000000    -1.082000000     2.530000000
O    -5.521000000    -5.087000000     3.185000000
H    -4.969000000    -5.490000000     3.855000000
H    -5.048000000    -4.296000000     2.928000000
O    -4.389000000    -1.170000000     7.378000000
H    -4.579000000    -2.099000000     7.250000000
H    -4.784000000    -0.738000000     6.621000000
O    -7.768000000    -4.997000000     0.813000000
H    -6.975000000    -5.268000000     1.276000000
H    -7.566000000    -4.120000000     0.487000000
O    -5.115000000    -5.406000000    -1.721000000
H    -5.030000000    -4.759000000    -2.421000000
H    -4.640000000    -5.025000000    -0.982000000
O    -7.271000000    -1.358000000     1.099000000
H    -7.207000000    -0.961000000     0.230000000
H    -6.363000000    -1.501000000     1.364000000
O   -10.385000000    -1.905000000     0.843000000
H    -9.478000000    -1.608000000     0.927000000
H   -10.483000000    -2.571000000     1.522000000
O    -6.674000000     1.942000000     6.374000000
H    -5.951000000     1.700000000     5.796000000
H    -7.207000000     1.150000000     6.436000000
O    -7.822000000     0.480000000     3.778000000
H    -7.818000000    -0.228000000     3.134000000
H    -6.991000000     0.384000000     4.244000000
O    -4.605000000    -6.122000000     5.533000000
H    -5.490000000    -6.130000000     5.896000000
H    -4.032000000    -6.074000000     6.298000000
O    -4.270000000    -2.005000000    -0.884000000
H    -3.752000000    -1.218000000    -0.714000000
H    -5.116000000    -1.674000000    -1.187000000
O    -8.562000000    -3.031000000     5.807000000
H    -8.515000000    -3.827000000     5.276000000
H    -7.769000000    -2.545000000     5.580000000
O    -3.786000000    -4.592000000     0.471000000
H    -3.792000000    -3.745000000     0.024000000
H    -3.698000000    -4.372000000     1.398000000
O    -7.906000000    -5.441000000     4.260000000
H    -7.074000000    -5.309000000     3.805000000
H    -7.657000000    -5.779000000     5.120000000
O    -5.386000000    -3.662000000     7.541000000
H    -4.868000000    -4.398000000     7.865000000
H    -6.164000000    -3.652000000     8.098000000
O    -5.038000000     0.622000000     4.645000000
H    -5.154000000     0.056000000     3.882000000
H    -4.104000000     0.565000000     4.846000000
O    -5.934000000    -2.273000000     4.817000000
H    -5.362000000    -2.209000000     4.053000000
H    -5.623000000    -3.049000000     5.284000000
O    -6.784000000    -1.210000000    -1.630000000
H    -7.360000000    -0.540000000    -1.999000000
H    -7.338000000    -1.986000000    -1.552000000
O    -7.761000000     3.018000000     2.084000000
H    -8.206000000     3.517000000     2.769000000
H    -7.624000000     2.153000000     2.469000000
O    -4.293000000    -7.313000000     1.346000000
H    -4.381000000    -6.423000000     1.006000000
H    -5.187000000    -7.575000000     1.565000000
