218
-1444.32333
C    -3.651000000     2.129000000     2.759000000
H    -3.719000000     2.682000000     1.826000000
C    -2.524000000     2.050000000     3.556000000
C    -2.608000000     1.278000000     4.719000000
H    -1.723000000     1.232000000     5.348000000
C    -1.299000000     2.833000000     3.101000000
O    -1.532000000     4.147000000     2.600000000
H    -0.893000000     2.300000000     2.229000000
O    -0.294000000     2.788000000     4.089000000
C     1.034000000     2.464000000     3.796000000
C     1.377000000     1.170000000     4.031000000
H     0.683000000     0.564000000     4.608000000
C     2.571000000     0.636000000     3.510000000
O     2.804000000    -0.684000000     3.784000000
C     3.423000000     1.458000000     2.802000000
C     4.784000000     0.986000000     2.518000000
H     5.511000000     1.792000000     2.396000000
C     4.758000000     0.242000000     1.214000000
C     4.990000000     0.932000000     0.006000000
H     5.124000000     2.010000000     0.038000000
H     5.053000000     0.445000000     3.427000000
C     3.110000000     2.738000000     2.571000000
H     3.748000000     3.366000000     1.955000000
C     1.948000000     3.278000000     3.093000000
C     1.457000000     4.704000000     2.735000000
H     2.329000000     5.361000000     2.699000000
H     0.751000000     4.996000000     3.515000000
C     0.645000000     4.778000000     1.494000000
C     1.374000000     4.892000000     0.296000000
H     2.447000000     5.034000000     0.393000000
C    -0.765000000     4.458000000     1.494000000
C    -1.425000000     4.402000000     0.223000000
H    -2.491000000     4.194000000     0.181000000
C    -0.639000000     4.497000000    -0.959000000
O    -1.257000000     4.314000000    -2.140000000
C    -1.143000000     2.939000000    -2.637000000
C    -2.455000000     2.350000000    -3.206000000
C    -2.464000000     1.612000000    -4.357000000
H    -1.515000000     1.530000000    -4.883000000
C    -3.734000000     2.585000000    -2.568000000
H    -3.802000000     3.205000000    -1.678000000
O    -0.136000000     3.054000000    -3.645000000
H    -0.898000000     2.168000000    -1.892000000
C     0.706000000     4.766000000    -0.910000000
C     1.577000000     4.802000000    -2.185000000
H     2.402000000     5.504000000    -2.047000000
H     1.071000000     5.271000000    -3.032000000
C     2.041000000     3.416000000    -2.615000000
C     3.327000000     2.987000000    -2.374000000
H     3.960000000     3.539000000    -1.684000000
C     1.117000000     2.637000000    -3.322000000
C     1.550000000     1.389000000    -3.782000000
H     0.774000000     0.805000000    -4.270000000
C     2.811000000     0.911000000    -3.534000000
O     3.080000000    -0.378000000    -4.030000000
C     2.837000000    -1.294000000    -2.943000000
C     1.875000000    -2.377000000    -3.278000000
C     1.038000000    -2.286000000    -4.435000000
H     1.112000000    -1.482000000    -5.163000000
C     1.753000000    -3.460000000    -2.423000000
H     2.374000000    -3.595000000    -1.541000000
O     4.109000000    -1.719000000    -2.427000000
H     2.314000000    -0.713000000    -2.169000000
C     3.698000000     1.708000000    -2.833000000
C     5.118000000     1.114000000    -2.547000000
H     5.949000000     1.815000000    -2.450000000
H     5.394000000     0.342000000    -3.268000000
C     4.922000000     0.243000000    -1.256000000
C     4.540000000    -1.116000000    -1.275000000
C     4.415000000    -1.766000000    -0.073000000
H     4.152000000    -2.820000000    -0.075000000
C     4.521000000    -1.140000000     1.153000000
O     4.083000000    -1.895000000     2.205000000
C     2.749000000    -1.569000000     2.666000000
H     2.180000000    -1.133000000     1.832000000
C     2.041000000    -2.852000000     3.129000000
C     0.831000000    -2.820000000     3.822000000
H     0.387000000    -1.870000000     4.107000000
C     2.464000000    -4.079000000     2.783000000
H     3.446000000    -4.212000000     2.336000000
C     1.811000000    -5.274000000     3.077000000
O     2.229000000    -6.443000000     2.571000000
C     0.712000000    -5.233000000     3.873000000
H     0.159000000    -6.131000000     4.136000000
C     0.172000000    -3.969000000     4.223000000
O    -1.019000000    -3.960000000     4.942000000
C    -1.235000000    -2.963000000     5.808000000
C    -2.326000000    -2.121000000     5.610000000
H    -2.999000000    -2.282000000     4.772000000
C    -0.445000000    -2.630000000     6.913000000
H     0.518000000    -3.075000000     7.147000000
C    -0.789000000    -1.629000000     7.840000000
H    -0.202000000    -1.389000000     8.723000000
C    -1.886000000    -0.811000000     7.629000000
H    -2.113000000     0.027000000     8.283000000
C    -2.590000000    -1.025000000     6.430000000
O    -3.737000000    -0.294000000     6.140000000
C    -3.766000000     0.576000000     5.056000000
C    -4.765000000     0.491000000     4.126000000
H    -5.594000000    -0.201000000     4.251000000
C    -4.710000000     1.296000000     3.010000000
O    -5.668000000     1.101000000     2.042000000
C    -5.925000000     2.083000000     1.137000000
C    -5.782000000     1.711000000    -0.222000000
H    -5.136000000     0.888000000    -0.516000000
C    -6.867000000     3.137000000     1.382000000
H    -7.286000000     3.229000000     2.381000000
C    -7.525000000     3.841000000     0.380000000
H    -8.212000000     4.635000000     0.660000000
C    -7.258000000     3.500000000    -0.909000000
H    -7.698000000     4.037000000    -1.745000000
C    -6.362000000     2.438000000    -1.209000000
O    -6.149000000     2.144000000    -2.549000000
C    -4.900000000     2.171000000    -3.176000000
C    -4.842000000     1.446000000    -4.342000000
H    -5.778000000     1.207000000    -4.840000000
C    -3.654000000     1.066000000    -4.874000000
O    -3.748000000     0.532000000    -6.128000000
C    -2.711000000    -0.232000000    -6.621000000
C    -2.182000000    -1.364000000    -6.066000000
H    -2.609000000    -1.824000000    -5.178000000
C    -1.943000000     0.342000000    -7.664000000
H    -2.228000000     1.281000000    -8.131000000
C    -0.806000000    -0.304000000    -8.183000000
H    -0.363000000     0.106000000    -9.087000000
C    -0.343000000    -1.485000000    -7.611000000
H     0.589000000    -1.991000000    -7.848000000
C    -1.057000000    -2.007000000    -6.535000000
O    -0.554000000    -3.172000000    -5.960000000
C     0.164000000    -3.297000000    -4.773000000
C     0.093000000    -4.420000000    -3.895000000
H    -0.626000000    -5.218000000    -4.067000000
C     0.851000000    -4.493000000    -2.773000000
O     0.654000000    -5.532000000    -1.904000000
C     1.557000000    -6.225000000    -1.016000000
C     2.583000000    -6.944000000    -1.566000000
H     2.582000000    -7.044000000    -2.648000000
C     3.548000000    -7.485000000    -0.748000000
H     4.360000000    -7.990000000    -1.265000000
C     3.519000000    -7.259000000     0.649000000
H     4.243000000    -7.773000000     1.277000000
C     2.454000000    -6.581000000     1.174000000
C     1.376000000    -6.175000000     0.407000000
H     0.534000000    -5.634000000     0.831000000
C    -1.700000000    -1.720000000    -1.408000000
H    -2.011000000    -1.994000000    -2.412000000
C    -0.749000000    -0.662000000    -1.316000000
H    -0.548000000    -0.091000000    -2.219000000
C    -0.192000000    -0.394000000    -0.077000000
C     0.879000000     0.700000000     0.034000000
H     1.828000000     0.298000000     0.395000000
H     1.169000000     1.191000000    -0.897000000
H     0.536000000     1.460000000     0.739000000
C    -0.552000000    -1.088000000     1.038000000
H    -0.040000000    -0.885000000     1.975000000
C    -1.486000000    -2.135000000     0.960000000
H    -1.650000000    -2.765000000     1.830000000
C    -2.137000000    -2.435000000    -0.238000000
C    -3.177000000    -3.466000000    -0.281000000
O    -3.511000000    -4.233000000     0.611000000
O    -3.989000000    -3.369000000    -1.139000000
O    -2.987000000     0.561000000     0.226000000
H    -3.062000000     0.362000000     1.159000000
H    -2.337000000    -0.062000000    -0.100000000
O    -4.778000000    -9.559000000     1.140000000
H    -4.389000000    -8.797000000     0.710000000
H    -5.340000000    -9.188000000     1.821000000
O    -5.666000000    -5.402000000     2.829000000
H    -4.901000000    -5.036000000     3.273000000
H    -5.318000000    -5.764000000     2.014000000
O    -4.223000000    -4.725000000    -5.171000000
H    -4.516000000    -3.817000000    -5.087000000
H    -3.691000000    -4.733000000    -5.966000000
O    -7.553000000    -1.367000000     2.821000000
H    -7.831000000    -2.219000000     2.484000000
H    -6.704000000    -1.211000000     2.408000000
O    -5.717000000    -2.047000000     0.927000000
H    -5.849000000    -2.682000000     0.224000000
H    -4.839000000    -1.698000000     0.774000000
O    -7.171000000    -4.348000000    -3.274000000
H    -6.497000000    -3.780000000    -3.648000000
H    -7.256000000    -5.065000000    -3.903000000
O    -8.172000000    -3.589000000     1.626000000
H    -7.937000000    -4.362000000     2.140000000
H    -7.481000000    -3.522000000     0.966000000
O    -7.390000000    -6.728000000     0.123000000
H    -6.836000000    -6.421000000    -0.595000000
H    -6.773000000    -7.034000000     0.788000000
O    -6.286000000    -4.306000000    -0.663000000
H    -5.385000000    -3.997000000    -0.759000000
H    -6.646000000    -4.274000000    -1.550000000
O    -3.006000000    -7.433000000     2.914000000
H    -3.160000000    -7.483000000     3.857000000
H    -2.136000000    -7.814000000     2.793000000
O    -3.695000000    -7.462000000     0.225000000
H    -3.431000000    -7.616000000     1.132000000
H    -3.402000000    -6.571000000     0.038000000
O    -5.640000000    -7.766000000    -2.431000000
H    -5.276000000    -8.467000000    -1.889000000
H    -4.998000000    -7.059000000    -2.369000000
O    -3.902000000    -5.733000000    -2.593000000
H    -3.861000000    -5.516000000    -3.525000000
H    -4.058000000    -4.894000000    -2.159000000
O    -5.172000000    -2.358000000    -3.392000000
H    -5.874000000    -1.796000000    -3.064000000
H    -4.632000000    -2.541000000    -2.623000000
O    -7.142000000    -0.231000000    -2.336000000
H    -7.672000000    -0.257000000    -1.539000000
H    -6.482000000     0.440000000    -2.163000000
O    -3.075000000    -4.688000000     3.112000000
H    -3.192000000    -4.254000000     2.267000000
H    -2.764000000    -5.566000000     2.889000000
O    -0.635000000    -8.809000000    -0.260000000
H    -0.820000000    -9.734000000    -0.423000000
H    -1.022000000    -8.352000000    -1.007000000
O    -2.266000000    -7.893000000    -2.294000000
H    -2.580000000    -7.003000000    -2.132000000
H    -2.986000000    -8.456000000    -2.010000000
