218
-1471.17562
C    -3.373000000    -3.687000000    -1.217000000
H    -3.667000000    -3.506000000    -2.247000000
C    -3.534000000    -2.633000000    -0.320000000
C    -3.403000000    -2.951000000     1.080000000
H    -3.480000000    -2.234000000     1.893000000
C    -3.925000000    -1.157000000    -0.594000000
O    -4.341000000    -1.009000000    -1.972000000
H    -3.001000000    -0.598000000    -0.389000000
O    -4.871000000    -0.646000000     0.282000000
C    -4.534000000     0.672000000     0.768000000
C    -3.950000000     0.751000000     2.045000000
H    -4.045000000    -0.040000000     2.785000000
C    -3.404000000     1.981000000     2.431000000
O    -2.755000000     1.920000000     3.704000000
C    -3.349000000     3.134000000     1.654000000
C    -2.700000000     4.406000000     2.199000000
H    -3.207000000     5.313000000     1.862000000
C    -1.184000000     4.407000000     1.926000000
C    -0.653000000     5.009000000     0.757000000
H    -1.380000000     5.428000000     0.065000000
H    -2.897000000     4.428000000     3.273000000
C    -3.950000000     3.072000000     0.368000000
H    -3.731000000     3.910000000    -0.290000000
C    -4.437000000     1.839000000    -0.038000000
C    -4.976000000     1.830000000    -1.463000000
H    -5.384000000     2.805000000    -1.736000000
H    -5.844000000     1.172000000    -1.546000000
C    -3.996000000     1.377000000    -2.473000000
C    -3.202000000     2.307000000    -3.064000000
H    -3.206000000     3.322000000    -2.675000000
C    -3.726000000     0.019000000    -2.655000000
C    -2.816000000    -0.330000000    -3.607000000
H    -2.686000000    -1.378000000    -3.867000000
C    -2.021000000     0.651000000    -4.296000000
O    -0.986000000     0.186000000    -5.058000000
C     0.233000000     0.087000000    -4.450000000
C     0.952000000    -1.198000000    -4.801000000
C     2.364000000    -1.202000000    -4.881000000
H     2.870000000    -0.279000000    -4.609000000
C     0.228000000    -2.407000000    -4.794000000
H    -0.851000000    -2.432000000    -4.665000000
O     1.052000000     1.241000000    -4.787000000
H     0.077000000     0.027000000    -3.363000000
C    -2.221000000     1.980000000    -4.017000000
C    -1.323000000     3.111000000    -4.556000000
H    -1.821000000     4.075000000    -4.677000000
H    -1.045000000     2.792000000    -5.563000000
C    -0.042000000     3.141000000    -3.747000000
C     0.059000000     4.158000000    -2.774000000
H    -0.804000000     4.806000000    -2.647000000
C     1.033000000     2.256000000    -3.899000000
C     2.174000000     2.359000000    -3.128000000
H     3.040000000     1.703000000    -3.124000000
C     2.231000000     3.280000000    -2.105000000
O     3.334000000     3.197000000    -1.307000000
C     3.108000000     2.758000000     0.049000000
C     4.139000000     1.719000000     0.516000000
C     4.735000000     0.880000000    -0.442000000
H     4.576000000     0.957000000    -1.515000000
C     4.349000000     1.471000000     1.861000000
H     3.799000000     2.003000000     2.633000000
O     2.862000000     3.901000000     0.957000000
H     2.107000000     2.305000000     0.084000000
C     1.208000000     4.254000000    -1.955000000
C     1.272000000     5.317000000    -0.892000000
H     0.729000000     6.184000000    -1.271000000
H     2.257000000     5.742000000    -0.689000000
C     0.683000000     4.781000000     0.412000000
C     1.529000000     4.119000000     1.309000000
C     1.034000000     3.562000000     2.515000000
H     1.633000000     3.007000000     3.232000000
C    -0.322000000     3.774000000     2.866000000
O    -0.778000000     3.161000000     3.936000000
C    -1.299000000     1.800000000     3.778000000
H    -0.969000000     1.361000000     2.825000000
C    -0.801000000     0.928000000     4.926000000
C    -1.597000000    -0.053000000     5.494000000
H    -2.662000000    -0.080000000     5.278000000
C     0.516000000     0.904000000     5.405000000
H     1.238000000     1.660000000     5.106000000
C     0.887000000     0.130000000     6.494000000
O     2.113000000     0.273000000     7.037000000
C     0.076000000    -0.860000000     6.978000000
H     0.404000000    -1.644000000     7.656000000
C    -1.193000000    -1.000000000     6.418000000
O    -2.127000000    -1.919000000     6.910000000
C    -3.022000000    -2.570000000     6.017000000
C    -2.517000000    -3.280000000     4.903000000
H    -1.449000000    -3.480000000     4.857000000
C    -4.394000000    -2.477000000     6.112000000
H    -4.791000000    -1.887000000     6.934000000
C    -5.270000000    -3.094000000     5.273000000
H    -6.348000000    -2.961000000     5.315000000
C    -4.717000000    -3.660000000     4.116000000
H    -5.436000000    -4.172000000     3.482000000
C    -3.336000000    -3.808000000     3.938000000
O    -2.779000000    -4.458000000     2.823000000
C    -2.917000000    -4.180000000     1.485000000
C    -2.753000000    -5.163000000     0.550000000
H    -2.419000000    -6.136000000     0.901000000
C    -2.910000000    -4.911000000    -0.795000000
O    -2.671000000    -5.938000000    -1.748000000
C    -2.527000000    -5.675000000    -3.120000000
C    -1.222000000    -5.514000000    -3.647000000
H    -0.332000000    -5.625000000    -3.033000000
C    -3.629000000    -5.599000000    -3.968000000
H    -4.667000000    -5.776000000    -3.696000000
C    -3.468000000    -5.186000000    -5.304000000
H    -4.275000000    -5.327000000    -6.019000000
C    -2.159000000    -4.923000000    -5.808000000
H    -2.059000000    -4.601000000    -6.841000000
C    -1.027000000    -5.103000000    -4.998000000
O     0.283000000    -4.852000000    -5.380000000
C     0.903000000    -3.616000000    -5.147000000
C     2.278000000    -3.544000000    -5.326000000
H     2.791000000    -4.462000000    -5.599000000
C     3.034000000    -2.377000000    -5.198000000
O     4.459000000    -2.460000000    -5.265000000
C     5.270000000    -1.583000000    -4.546000000
C     5.278000000    -1.748000000    -3.162000000
H     4.624000000    -2.416000000    -2.608000000
C     6.235000000    -0.799000000    -5.216000000
H     6.471000000    -0.925000000    -6.270000000
C     6.969000000     0.057000000    -4.448000000
H     7.576000000     0.847000000    -4.882000000
C     6.968000000    -0.062000000    -3.032000000
H     7.657000000     0.481000000    -2.390000000
C     6.039000000    -0.858000000    -2.390000000
O     6.130000000    -0.973000000    -0.991000000
C     5.590000000    -0.115000000    -0.081000000
C     5.789000000    -0.354000000     1.240000000
H     6.549000000    -1.082000000     1.512000000
C     5.165000000     0.382000000     2.222000000
O     5.359000000    -0.089000000     3.502000000
C     4.902000000     0.528000000     4.653000000
C     5.519000000     1.698000000     5.084000000
H     6.347000000     2.128000000     4.528000000
C     5.069000000     2.374000000     6.179000000
H     5.552000000     3.267000000     6.569000000
C     3.990000000     1.862000000     6.866000000
H     3.652000000     2.351000000     7.775000000
C     3.283000000     0.765000000     6.374000000
C     3.723000000     0.052000000     5.269000000
H     3.217000000    -0.813000000     4.849000000
C     0.845000000    -2.068000000    -0.902000000
H     0.774000000    -2.834000000    -1.669000000
C    -0.032000000    -0.960000000    -0.932000000
H    -0.810000000    -0.932000000    -1.691000000
C     0.075000000     0.136000000    -0.132000000
C    -0.806000000     1.341000000    -0.308000000
H    -1.426000000     1.601000000     0.552000000
H    -0.152000000     2.191000000    -0.513000000
H    -1.492000000     1.197000000    -1.145000000
C     1.066000000     0.082000000     0.912000000
H     1.297000000     0.923000000     1.561000000
C     1.938000000    -0.978000000     0.927000000
H     2.756000000    -0.922000000     1.641000000
C     1.892000000    -2.004000000     0.076000000
C     2.822000000    -3.160000000     0.247000000
O     3.561000000    -3.181000000     1.239000000
O     2.791000000    -4.127000000    -0.533000000
O     2.865000000    -3.017000000     5.643000000
H     2.307000000    -3.149000000     6.410000000
H     2.745000000    -3.810000000     5.121000000
O     7.502000000    -3.383000000     4.977000000
H     6.742000000    -3.174000000     4.434000000
H     7.845000000    -4.195000000     4.605000000
O     8.838000000    -3.694000000    -0.632000000
H     9.264000000    -4.309000000    -1.230000000
H     8.194000000    -4.223000000    -0.163000000
O    -0.522000000    -7.650000000     1.958000000
H     0.059000000    -6.916000000     2.156000000
H    -1.067000000    -7.741000000     2.740000000
O     7.421000000    -6.199000000     1.431000000
H     7.704000000    -6.305000000     2.339000000
H     6.812000000    -5.460000000     1.455000000
O     4.858000000    -5.217000000    -1.539000000
H     5.525000000    -4.884000000    -0.939000000
H     4.046000000    -4.801000000    -1.249000000
O     2.436000000    -5.471000000     4.376000000
H     2.525000000    -6.138000000     5.057000000
H     1.519000000    -5.523000000     4.109000000
O     6.584000000    -8.434000000     0.182000000
H     6.937000000    -7.624000000     0.549000000
H     5.670000000    -8.448000000     0.469000000
O    -0.102000000    -2.869000000     2.278000000
H     0.631000000    -2.466000000     1.814000000
H    -0.870000000    -2.380000000     1.984000000
O     1.778000000    -8.480000000    -2.191000000
H     0.996000000    -8.568000000    -2.736000000
H     1.544000000    -7.817000000    -1.542000000
O    -0.095000000    -5.636000000     3.807000000
H    -0.919000000    -6.100000000     3.957000000
H    -0.348000000    -4.716000000     3.735000000
O     2.721000000    -6.035000000     1.571000000
H     2.975000000    -5.344000000     0.959000000
H     2.760000000    -5.619000000     2.432000000
O     5.046000000    -5.376000000     6.076000000
H     5.195000000    -4.529000000     5.655000000
H     4.396000000    -5.194000000     6.755000000
O     5.889000000    -5.529000000    -4.126000000
H     5.441000000    -5.496000000    -3.281000000
H     5.267000000    -5.963000000    -4.710000000
O     1.128000000    -6.121000000    -0.905000000
H     0.727000000    -6.093000000    -0.036000000
H     1.798000000    -5.439000000    -0.881000000
O     4.170000000    -8.305000000     1.478000000
H     3.515000000    -8.802000000     1.969000000
H     3.806000000    -7.422000000     1.418000000
O     4.351000000    -8.032000000    -2.712000000
H     4.527000000    -7.446000000    -1.977000000
H     3.396000000    -8.093000000    -2.747000000
O     4.806000000    -3.516000000     3.859000000
H     4.151000000    -2.912000000     4.209000000
H     4.552000000    -3.641000000     2.945000000
O     6.056000000    -3.513000000     0.263000000
H     5.153000000    -3.502000000     0.582000000
H     6.145000000    -2.699000000    -0.233000000
