218
-1485.12754
C    -3.329000000     2.413000000     1.592000000
H    -2.982000000     2.975000000     0.729000000
C    -2.476000000     2.338000000     2.710000000
C    -2.929000000     1.713000000     3.899000000
H    -2.366000000     1.790000000     4.826000000
C    -1.148000000     3.078000000     2.584000000
O    -1.165000000     4.349000000     1.986000000
H    -0.564000000     2.448000000     1.897000000
O    -0.374000000     3.100000000     3.827000000
C     0.872000000     2.615000000     3.828000000
C     1.112000000     1.388000000     4.339000000
H     0.257000000     0.819000000     4.695000000
C     2.301000000     0.712000000     4.174000000
O     2.334000000    -0.626000000     4.469000000
C     3.333000000     1.336000000     3.397000000
C     4.626000000     0.665000000     3.105000000
H     5.464000000     1.364000000     3.106000000
C     4.617000000    -0.187000000     1.795000000
C     5.124000000     0.301000000     0.585000000
H     5.530000000     1.308000000     0.526000000
H     4.856000000     0.006000000     3.945000000
C     3.139000000     2.674000000     2.963000000
H     3.951000000     3.216000000     2.485000000
C     1.903000000     3.347000000     3.173000000
C     1.610000000     4.699000000     2.552000000
H     2.548000000     5.249000000     2.454000000
H     0.947000000     5.231000000     3.237000000
C     1.100000000     4.519000000     1.119000000
C     2.030000000     4.542000000     0.048000000
H     3.101000000     4.580000000     0.227000000
C    -0.275000000     4.487000000     0.922000000
C    -0.721000000     4.487000000    -0.319000000
H    -1.785000000     4.499000000    -0.542000000
C     0.143000000     4.437000000    -1.380000000
O    -0.425000000     4.179000000    -2.620000000
C    -0.379000000     2.834000000    -3.302000000
C    -1.668000000     2.546000000    -3.917000000
C    -1.830000000     1.316000000    -4.541000000
H    -0.989000000     0.627000000    -4.558000000
C    -2.791000000     3.372000000    -3.718000000
H    -2.694000000     4.191000000    -3.009000000
O     0.794000000     2.855000000    -4.240000000
H    -0.134000000     2.132000000    -2.492000000
C     1.517000000     4.444000000    -1.239000000
C     2.411000000     4.465000000    -2.463000000
H     3.322000000     5.028000000    -2.251000000
H     1.855000000     4.971000000    -3.255000000
C     2.764000000     3.058000000    -2.876000000
C     3.804000000     2.293000000    -2.247000000
H     4.243000000     2.812000000    -1.399000000
C     1.838000000     2.279000000    -3.721000000
C     2.097000000     0.969000000    -4.052000000
H     1.522000000     0.351000000    -4.737000000
C     3.170000000     0.344000000    -3.502000000
O     3.249000000    -1.059000000    -3.622000000
C     2.729000000    -1.881000000    -2.486000000
C     1.915000000    -3.062000000    -3.099000000
C     1.402000000    -3.124000000    -4.426000000
H     1.709000000    -2.354000000    -5.128000000
C     1.752000000    -4.196000000    -2.329000000
H     2.181000000    -4.130000000    -1.333000000
O     3.887000000    -2.367000000    -1.693000000
H     2.017000000    -1.256000000    -1.927000000
C     4.005000000     0.973000000    -2.560000000
C     5.178000000     0.242000000    -1.925000000
H     6.083000000     0.850000000    -1.850000000
H     5.506000000    -0.570000000    -2.576000000
C     4.831000000    -0.351000000    -0.620000000
C     4.098000000    -1.554000000    -0.574000000
C     3.828000000    -2.183000000     0.659000000
H     3.364000000    -3.160000000     0.767000000
C     4.041000000    -1.459000000     1.831000000
O     3.504000000    -2.066000000     2.940000000
C     2.175000000    -1.633000000     3.404000000
H     1.607000000    -1.208000000     2.563000000
C     1.377000000    -2.801000000     3.976000000
C     0.381000000    -2.552000000     4.944000000
H     0.432000000    -1.641000000     5.535000000
C     1.404000000    -3.932000000     3.188000000
H     2.136000000    -4.078000000     2.398000000
C     0.417000000    -4.879000000     3.528000000
O     0.383000000    -6.086000000     2.830000000
C    -0.477000000    -4.716000000     4.597000000
H    -1.157000000    -5.536000000     4.809000000
C    -0.574000000    -3.497000000     5.321000000
O    -1.536000000    -3.312000000     6.282000000
C    -2.145000000    -2.133000000     6.580000000
C    -2.857000000    -1.442000000     5.597000000
H    -2.969000000    -1.854000000     4.598000000
C    -2.156000000    -1.663000000     7.932000000
H    -1.623000000    -2.122000000     8.761000000
C    -2.877000000    -0.533000000     8.280000000
H    -2.779000000    -0.198000000     9.309000000
C    -3.646000000     0.141000000     7.272000000
H    -4.358000000     0.880000000     7.630000000
C    -3.625000000    -0.327000000     5.965000000
O    -4.493000000     0.265000000     5.036000000
C    -4.112000000     0.960000000     3.928000000
C    -4.821000000     0.971000000     2.800000000
H    -5.693000000     0.324000000     2.828000000
C    -4.510000000     1.724000000     1.668000000
O    -5.353000000     1.667000000     0.644000000
C    -5.662000000     2.767000000    -0.082000000
C    -5.288000000     2.649000000    -1.415000000
H    -4.672000000     1.810000000    -1.726000000
C    -6.261000000     3.855000000     0.404000000
H    -6.538000000     3.956000000     1.450000000
C    -6.587000000     4.938000000    -0.422000000
H    -6.983000000     5.864000000    -0.011000000
C    -6.334000000     4.820000000    -1.807000000
H    -6.559000000     5.709000000    -2.391000000
C    -5.616000000     3.694000000    -2.282000000
O    -5.232000000     3.580000000    -3.630000000
C    -4.047000000     2.958000000    -4.102000000
C    -4.193000000     1.747000000    -4.858000000
H    -5.212000000     1.469000000    -5.114000000
C    -3.037000000     0.979000000    -5.143000000
O    -3.108000000    -0.326000000    -5.560000000
C    -2.123000000    -0.958000000    -6.258000000
C    -1.770000000    -2.249000000    -5.867000000
H    -2.357000000    -2.751000000    -5.103000000
C    -1.552000000    -0.354000000    -7.360000000
H    -1.787000000     0.673000000    -7.625000000
C    -0.448000000    -0.938000000    -7.957000000
H     0.043000000    -0.431000000    -8.783000000
C    -0.020000000    -2.253000000    -7.553000000
H     0.868000000    -2.733000000    -7.957000000
C    -0.722000000    -2.899000000    -6.559000000
O    -0.195000000    -4.090000000    -6.035000000
C     0.456000000    -4.131000000    -4.817000000
C     0.263000000    -5.199000000    -3.992000000
H    -0.437000000    -5.960000000    -4.330000000
C     0.994000000    -5.293000000    -2.748000000
O     0.586000000    -6.317000000    -1.957000000
C     1.173000000    -6.567000000    -0.790000000
C     2.465000000    -7.050000000    -0.718000000
H     2.933000000    -7.482000000    -1.599000000
C     3.148000000    -7.128000000     0.520000000
H     4.166000000    -7.499000000     0.595000000
C     2.442000000    -6.740000000     1.700000000
H     2.981000000    -6.795000000     2.642000000
C     1.095000000    -6.344000000     1.628000000
C     0.532000000    -6.192000000     0.344000000
H    -0.457000000    -5.757000000     0.225000000
C    -1.964000000    -0.994000000    -1.156000000
H    -2.396000000    -1.179000000    -2.136000000
C    -0.728000000    -0.374000000    -1.044000000
H    -0.158000000    -0.089000000    -1.925000000
C    -0.235000000     0.019000000     0.193000000
C     1.110000000     0.657000000     0.169000000
H     1.819000000    -0.140000000     0.397000000
H     1.317000000     1.136000000    -0.790000000
H     1.191000000     1.395000000     0.971000000
C    -0.889000000    -0.287000000     1.375000000
H    -0.481000000    -0.125000000     2.370000000
C    -2.053000000    -1.019000000     1.280000000
H    -2.599000000    -1.344000000     2.162000000
C    -2.589000000    -1.398000000     0.023000000
C    -3.745000000    -2.375000000    -0.097000000
O    -4.358000000    -2.781000000     0.887000000
O    -4.227000000    -2.578000000    -1.181000000
O    -6.287000000    -3.132000000     2.749000000
H    -6.361000000    -4.072000000     2.582000000
H    -5.819000000    -2.789000000     1.987000000
O    -5.735000000    -6.033000000     2.673000000
H    -6.000000000    -6.896000000     2.992000000
H    -4.833000000    -6.155000000     2.377000000
O    -8.255000000    -1.323000000     3.877000000
H    -7.486000000    -1.545000000     3.354000000
H    -8.942000000    -1.151000000     3.233000000
O    -9.924000000    -2.358000000    -3.263000000
H    -9.229000000    -2.406000000    -2.607000000
H    -9.646000000    -1.661000000    -3.857000000
O    -4.964000000    -0.574000000    -3.063000000
H    -4.451000000    -0.597000000    -3.871000000
H    -4.756000000    -1.399000000    -2.624000000
O    -6.764000000    -2.596000000    -1.485000000
H    -5.812000000    -2.626000000    -1.393000000
H    -7.070000000    -3.405000000    -1.075000000
O    -7.627000000    -0.028000000    -0.427000000
H    -6.872000000     0.503000000    -0.171000000
H    -7.246000000    -0.830000000    -0.784000000
O    -8.031000000    -5.299000000    -1.424000000
H    -8.482000000    -5.530000000    -0.612000000
H    -7.101000000    -5.356000000    -1.207000000
O    -3.143000000    -6.491000000     1.266000000
H    -2.455000000    -7.130000000     1.452000000
H    -3.146000000    -6.412000000     0.312000000
O    -5.327000000    -5.079000000    -0.044000000
H    -5.629000000    -5.326000000     0.830000000
H    -4.915000000    -4.223000000     0.079000000
O    -6.496000000    -4.378000000     5.389000000
H    -5.619000000    -4.756000000     5.462000000
H    -6.430000000    -3.759000000     4.663000000
O    -3.283000000    -4.214000000    -2.978000000
H    -4.155000000    -4.244000000    -3.371000000
H    -3.403000000    -3.725000000    -2.164000000
O    -5.974000000    -4.055000000    -3.891000000
H    -6.380000000    -3.384000000    -3.342000000
H    -6.258000000    -3.843000000    -4.780000000
O    -7.492000000     0.478000000    -3.829000000
H    -8.123000000     0.612000000    -3.122000000
H    -6.714000000     0.130000000    -3.393000000
O    -3.020000000    -4.161000000     2.906000000
H    -3.456000000    -3.655000000     2.221000000
H    -2.981000000    -5.052000000     2.558000000
O    -6.346000000    -8.269000000    -0.456000000
H    -7.030000000    -8.705000000    -0.965000000
H    -5.911000000    -7.692000000    -1.084000000
O    -3.935000000    -4.793000000     5.592000000
H    -3.420000000    -4.753000000     6.398000000
H    -3.454000000    -4.244000000     4.973000000
O    -5.353000000    -6.669000000    -2.536000000
H    -4.477000000    -6.646000000    -2.153000000
H    -5.407000000    -5.868000000    -3.058000000
O    -2.714000000    -6.539000000    -1.477000000
H    -2.893000000    -5.654000000    -1.795000000
H    -1.818000000    -6.718000000    -1.761000000
