218
-1477.07540
C    -3.681000000     1.898000000     1.819000000
H    -3.390000000     2.215000000     0.821000000
C    -2.756000000     2.146000000     2.812000000
C    -3.090000000     1.654000000     4.104000000
H    -2.459000000     1.923000000     4.947000000
C    -1.416000000     2.847000000     2.573000000
O    -1.536000000     4.180000000     1.919000000
H    -0.875000000     2.120000000     1.949000000
O    -0.575000000     3.053000000     3.822000000
C     0.791000000     2.661000000     3.850000000
C     1.079000000     1.420000000     4.371000000
H     0.250000000     0.910000000     4.856000000
C     2.272000000     0.811000000     4.040000000
O     2.396000000    -0.522000000     4.410000000
C     3.376000000     1.527000000     3.362000000
C     4.709000000     0.798000000     3.082000000
H     5.431000000     1.602000000     2.927000000
C     4.507000000    -0.016000000     1.869000000
C     4.975000000     0.592000000     0.707000000
H     5.515000000     1.532000000     0.788000000
H     5.051000000     0.157000000     3.898000000
C     3.117000000     2.888000000     3.025000000
H     3.925000000     3.481000000     2.603000000
C     1.756000000     3.384000000     3.201000000
C     1.405000000     4.796000000     2.593000000
H     2.288000000     5.437000000     2.640000000
H     0.588000000     5.254000000     3.154000000
C     0.739000000     4.726000000     1.175000000
C     1.617000000     4.777000000     0.090000000
H     2.685000000     4.958000000     0.185000000
C    -0.623000000     4.508000000     0.981000000
C    -1.094000000     4.396000000    -0.340000000
H    -2.126000000     4.181000000    -0.604000000
C    -0.241000000     4.431000000    -1.429000000
O    -0.728000000     4.104000000    -2.677000000
C    -0.612000000     2.732000000    -3.221000000
C    -1.849000000     2.235000000    -3.937000000
C    -1.800000000     1.355000000    -4.969000000
H    -0.770000000     1.183000000    -5.272000000
C    -3.141000000     2.581000000    -3.471000000
H    -3.331000000     3.275000000    -2.657000000
O     0.475000000     2.825000000    -4.099000000
H    -0.359000000     2.081000000    -2.371000000
C     1.141000000     4.626000000    -1.209000000
C     2.031000000     4.619000000    -2.458000000
H     2.919000000     5.254000000    -2.450000000
H     1.423000000     5.050000000    -3.256000000
C     2.515000000     3.226000000    -2.832000000
C     3.646000000     2.639000000    -2.261000000
H     4.266000000     3.190000000    -1.558000000
C     1.695000000     2.418000000    -3.628000000
C     2.023000000     1.126000000    -3.993000000
H     1.359000000     0.509000000    -4.594000000
C     3.189000000     0.562000000    -3.466000000
O     3.316000000    -0.800000000    -3.580000000
C     2.736000000    -1.604000000    -2.539000000
C     1.947000000    -2.754000000    -3.077000000
C     1.429000000    -2.837000000    -4.376000000
H     1.590000000    -2.051000000    -5.110000000
C     1.742000000    -3.789000000    -2.189000000
H     2.027000000    -3.744000000    -1.141000000
O     3.753000000    -1.978000000    -1.630000000
H     2.066000000    -0.944000000    -1.968000000
C     3.976000000     1.295000000    -2.536000000
C     5.163000000     0.608000000    -1.814000000
H     5.877000000     1.386000000    -1.536000000
H     5.632000000    -0.116000000    -2.484000000
C     4.759000000    -0.052000000    -0.538000000
C     4.069000000    -1.201000000    -0.521000000
C     3.732000000    -1.901000000     0.620000000
H     3.291000000    -2.892000000     0.688000000
C     3.866000000    -1.229000000     1.831000000
O     3.389000000    -1.924000000     2.951000000
C     2.118000000    -1.495000000     3.419000000
H     1.608000000    -1.017000000     2.570000000
C     1.219000000    -2.626000000     3.971000000
C     0.367000000    -2.470000000     5.013000000
H     0.319000000    -1.480000000     5.459000000
C     1.316000000    -3.841000000     3.316000000
H     2.201000000    -3.991000000     2.702000000
C     0.499000000    -4.871000000     3.645000000
O     0.689000000    -6.128000000     3.169000000
C    -0.393000000    -4.666000000     4.661000000
H    -0.962000000    -5.555000000     4.919000000
C    -0.477000000    -3.499000000     5.385000000
O    -1.500000000    -3.284000000     6.292000000
C    -1.843000000    -1.990000000     6.573000000
C    -2.968000000    -1.460000000     5.948000000
H    -3.496000000    -1.954000000     5.137000000
C    -1.116000000    -1.191000000     7.471000000
H    -0.273000000    -1.595000000     8.025000000
C    -1.520000000     0.066000000     7.781000000
H    -0.891000000     0.596000000     8.491000000
C    -2.639000000     0.665000000     7.132000000
H    -2.949000000     1.683000000     7.352000000
C    -3.371000000    -0.154000000     6.241000000
O    -4.429000000     0.392000000     5.607000000
C    -4.262000000     0.929000000     4.326000000
C    -5.212000000     0.759000000     3.340000000
H    -6.166000000     0.244000000     3.411000000
C    -4.899000000     1.267000000     2.015000000
O    -5.699000000     1.035000000     0.927000000
C    -5.873000000     2.015000000    -0.032000000
C    -5.564000000     1.721000000    -1.324000000
H    -5.068000000     0.767000000    -1.486000000
C    -6.444000000     3.251000000     0.315000000
H    -6.695000000     3.435000000     1.356000000
C    -6.629000000     4.202000000    -0.684000000
H    -7.152000000     5.126000000    -0.452000000
C    -6.349000000     3.953000000    -2.037000000
H    -6.517000000     4.680000000    -2.827000000
C    -5.779000000     2.698000000    -2.365000000
O    -5.617000000     2.354000000    -3.676000000
C    -4.297000000     1.994000000    -4.059000000
C    -4.160000000     1.095000000    -5.122000000
H    -4.997000000     0.538000000    -5.534000000
C    -2.881000000     0.740000000    -5.626000000
O    -2.850000000    -0.242000000    -6.633000000
C    -1.697000000    -0.844000000    -6.949000000
C    -1.443000000    -2.109000000    -6.348000000
H    -2.083000000    -2.483000000    -5.554000000
C    -0.831000000    -0.310000000    -7.861000000
H    -1.017000000     0.682000000    -8.264000000
C     0.319000000    -1.095000000    -8.253000000
H     0.840000000    -0.704000000    -9.123000000
C     0.534000000    -2.393000000    -7.731000000
H     1.408000000    -2.994000000    -7.971000000
C    -0.312000000    -2.751000000    -6.685000000
O     0.066000000    -3.876000000    -5.982000000
C     0.610000000    -3.855000000    -4.703000000
C     0.352000000    -4.842000000    -3.769000000
H    -0.274000000    -5.688000000    -4.039000000
C     0.989000000    -4.883000000    -2.563000000
O     0.601000000    -5.862000000    -1.708000000
C     1.277000000    -6.179000000    -0.574000000
C     2.364000000    -7.081000000    -0.594000000
H     2.720000000    -7.445000000    -1.554000000
C     3.011000000    -7.405000000     0.605000000
H     3.880000000    -8.055000000     0.538000000
C     2.420000000    -7.171000000     1.879000000
H     2.823000000    -7.556000000     2.812000000
C     1.283000000    -6.421000000     1.903000000
C     0.762000000    -5.874000000     0.717000000
H    -0.130000000    -5.253000000     0.739000000
C    -2.051000000    -0.960000000    -1.108000000
H    -2.426000000    -1.100000000    -2.119000000
C    -0.887000000    -0.207000000    -0.975000000
H    -0.378000000     0.101000000    -1.885000000
C    -0.273000000    -0.013000000     0.260000000
C     0.975000000     0.805000000     0.307000000
H     1.447000000     0.801000000     1.291000000
H     1.700000000     0.489000000    -0.445000000
H     0.694000000     1.847000000     0.135000000
C    -0.976000000    -0.471000000     1.373000000
H    -0.611000000    -0.308000000     2.384000000
C    -1.984000000    -1.466000000     1.171000000
H    -2.569000000    -1.810000000     2.020000000
C    -2.621000000    -1.655000000    -0.017000000
C    -3.863000000    -2.506000000    -0.197000000
O    -4.437000000    -2.996000000     0.773000000
O    -4.199000000    -2.872000000    -1.340000000
O    -6.967000000    -2.794000000     1.669000000
H    -7.293000000    -3.635000000     1.350000000
H    -6.156000000    -2.650000000     1.181000000
O   -10.195000000    -5.444000000     0.804000000
H    -9.277000000    -5.391000000     0.537000000
H   -10.239000000    -4.940000000     1.616000000
O    -8.956000000    -0.930000000     1.173000000
H    -8.184000000    -1.476000000     1.327000000
H    -9.123000000    -0.509000000     2.016000000
O    -8.957000000    -3.950000000    -3.807000000
H    -9.488000000    -3.230000000    -3.466000000
H    -8.055000000    -3.688000000    -3.626000000
O    -4.912000000    -8.046000000    -1.461000000
H    -4.472000000    -8.532000000    -0.763000000
H    -5.465000000    -7.414000000    -1.003000000
O    -6.281000000    -3.086000000    -3.498000000
H    -5.659000000    -3.119000000    -4.225000000
H    -5.735000000    -3.127000000    -2.713000000
O    -7.731000000    -5.148000000    -0.357000000
H    -8.063000000    -5.103000000    -1.254000000
H    -6.780000000    -5.096000000    -0.451000000
O    -1.302000000    -8.569000000     2.380000000
H    -1.151000000    -8.913000000     1.499000000
H    -1.552000000    -7.656000000     2.242000000
O    -8.492000000     0.536000000    -1.308000000
H    -7.748000000     0.991000000    -0.914000000
H    -8.880000000     0.042000000    -0.585000000
O    -2.996000000    -6.356000000     1.851000000
H    -3.576000000    -7.078000000     2.095000000
H    -3.074000000    -6.297000000     0.899000000
O    -5.125000000    -5.352000000    -0.311000000
H    -4.897000000    -4.891000000    -1.119000000
H    -4.996000000    -4.702000000     0.380000000
O    -6.281000000    -3.658000000     4.283000000
H    -5.422000000    -3.927000000     3.958000000
H    -6.748000000    -3.356000000     3.504000000
O    -3.642000000    -7.276000000    -3.869000000
H    -4.159000000    -7.458000000    -3.084000000
H    -3.881000000    -6.381000000    -4.111000000
O    -3.181000000    -4.788000000    -2.693000000
H    -3.031000000    -4.594000000    -3.618000000
H    -3.483000000    -3.960000000    -2.320000000
O    -3.948000000    -4.195000000    -5.366000000
H    -3.254000000    -4.459000000    -5.970000000
H    -4.480000000    -3.577000000    -5.867000000
O    -7.573000000    -0.397000000    -3.693000000
H    -8.056000000    -0.233000000    -2.883000000
H    -6.978000000    -1.114000000    -3.476000000
O    -4.113000000    -4.159000000     3.109000000
H    -4.245000000    -3.608000000     2.338000000
H    -3.600000000    -4.901000000     2.789000000
O    -3.902000000    -5.574000000     5.484000000
H    -3.519000000    -4.779000000     5.855000000
H    -4.268000000    -5.295000000     4.645000000
O    -2.024000000    -7.278000000    -0.949000000
H    -2.225000000    -6.737000000    -1.713000000
H    -1.114000000    -7.069000000    -0.740000000
