218
-1483.70590
C    -4.119000000     2.047000000     2.150000000
H    -4.066000000     2.989000000     1.609000000
C    -3.004000000     1.661000000     2.829000000
C    -2.962000000     0.419000000     3.479000000
H    -2.089000000     0.115000000     4.051000000
C    -1.745000000     2.490000000     2.840000000
O    -1.910000000     3.894000000     2.546000000
H    -1.024000000     2.043000000     2.140000000
O    -1.098000000     2.465000000     4.138000000
C     0.297000000     2.062000000     4.076000000
C     0.696000000     0.773000000     4.428000000
H    -0.020000000     0.027000000     4.762000000
C     1.997000000     0.340000000     4.214000000
O     2.342000000    -0.995000000     4.367000000
C     2.965000000     1.243000000     3.726000000
C     4.387000000     0.765000000     3.557000000
H     5.059000000     1.624000000     3.508000000
C     4.552000000     0.187000000     2.192000000
C     5.023000000     1.034000000     1.169000000
H     5.353000000     2.048000000     1.380000000
H     4.744000000     0.053000000     4.305000000
C     2.606000000     2.552000000     3.479000000
H     3.373000000     3.281000000     3.229000000
C     1.281000000     2.959000000     3.684000000
C     0.851000000     4.402000000     3.415000000
H     1.765000000     5.001000000     3.406000000
H     0.248000000     4.847000000     4.209000000
C     0.339000000     4.665000000     2.018000000
C     1.315000000     4.863000000     1.002000000
H     2.360000000     4.987000000     1.273000000
C    -1.022000000     4.391000000     1.642000000
C    -1.438000000     4.390000000     0.348000000
H    -2.378000000     3.920000000     0.070000000
C    -0.491000000     4.583000000    -0.665000000
O    -0.925000000     4.368000000    -1.927000000
C    -0.629000000     3.145000000    -2.613000000
C    -1.875000000     2.551000000    -3.307000000
C    -1.760000000     1.470000000    -4.133000000
H    -0.822000000     1.000000000    -4.414000000
C    -3.183000000     2.992000000    -2.932000000
H    -3.325000000     3.911000000    -2.369000000
O     0.477000000     3.388000000    -3.496000000
H    -0.306000000     2.397000000    -1.874000000
C     0.891000000     4.865000000    -0.360000000
C     1.884000000     5.098000000    -1.413000000
H     2.721000000     5.648000000    -0.977000000
H     1.487000000     5.695000000    -2.236000000
C     2.410000000     3.772000000    -1.975000000
C     3.658000000     3.335000000    -1.501000000
H     4.083000000     3.857000000    -0.648000000
C     1.746000000     3.023000000    -2.984000000
C     2.246000000     1.813000000    -3.312000000
H     1.658000000     1.134000000    -3.923000000
C     3.485000000     1.405000000    -2.824000000
O     3.822000000     0.133000000    -3.289000000
C     3.325000000    -0.891000000    -2.407000000
C     2.682000000    -2.024000000    -3.225000000
C     2.477000000    -1.788000000    -4.584000000
H     2.636000000    -0.790000000    -4.984000000
C     2.219000000    -3.216000000    -2.680000000
H     2.305000000    -3.376000000    -1.608000000
O     4.487000000    -1.373000000    -1.778000000
H     2.618000000    -0.437000000    -1.697000000
C     4.244000000     2.134000000    -1.876000000
C     5.533000000     1.537000000    -1.303000000
H     6.232000000     2.299000000    -0.953000000
H     6.023000000     0.988000000    -2.111000000
C     5.121000000     0.507000000    -0.162000000
C     4.782000000    -0.859000000    -0.488000000
C     4.353000000    -1.647000000     0.576000000
H     4.110000000    -2.684000000     0.361000000
C     4.251000000    -1.124000000     1.878000000
O     3.650000000    -1.949000000     2.810000000
C     2.307000000    -1.798000000     3.163000000
H     1.830000000    -1.252000000     2.336000000
C     1.672000000    -3.137000000     3.474000000
C     0.877000000    -3.351000000     4.579000000
H     0.796000000    -2.581000000     5.341000000
C     1.725000000    -4.136000000     2.474000000
H     2.337000000    -3.971000000     1.591000000
C     0.968000000    -5.273000000     2.617000000
O     1.185000000    -6.336000000     1.800000000
C     0.203000000    -5.477000000     3.723000000
H    -0.411000000    -6.360000000     3.879000000
C     0.092000000    -4.519000000     4.715000000
O    -0.649000000    -4.666000000     5.820000000
C    -1.746000000    -3.766000000     6.015000000
C    -2.444000000    -3.264000000     4.868000000
H    -2.202000000    -3.611000000     3.867000000
C    -1.998000000    -3.226000000     7.234000000
H    -1.462000000    -3.494000000     8.141000000
C    -3.087000000    -2.306000000     7.352000000
H    -3.451000000    -1.954000000     8.314000000
C    -3.796000000    -1.860000000     6.253000000
H    -4.598000000    -1.152000000     6.445000000
C    -3.390000000    -2.233000000     4.976000000
O    -3.976000000    -1.754000000     3.773000000
C    -4.037000000    -0.445000000     3.285000000
C    -5.163000000    -0.068000000     2.582000000
H    -6.055000000    -0.674000000     2.443000000
C    -5.231000000     1.184000000     2.063000000
O    -6.339000000     1.505000000     1.377000000
C    -6.441000000     2.553000000     0.437000000
C    -5.933000000     2.235000000    -0.812000000
H    -5.596000000     1.224000000    -1.030000000
C    -7.069000000     3.796000000     0.640000000
H    -7.449000000     3.987000000     1.641000000
C    -7.272000000     4.691000000    -0.422000000
H    -7.765000000     5.643000000    -0.240000000
C    -6.725000000     4.357000000    -1.646000000
H    -6.855000000     4.988000000    -2.522000000
C    -6.073000000     3.120000000    -1.898000000
O    -5.549000000     2.853000000    -3.187000000
C    -4.317000000     2.330000000    -3.442000000
C    -4.211000000     1.241000000    -4.214000000
H    -5.138000000     0.820000000    -4.595000000
C    -2.938000000     0.835000000    -4.593000000
O    -2.821000000    -0.245000000    -5.370000000
C    -1.835000000    -0.503000000    -6.318000000
C    -0.703000000    -1.160000000    -5.937000000
H    -0.615000000    -1.318000000    -4.866000000
C    -2.033000000    -0.166000000    -7.686000000
H    -2.968000000     0.352000000    -7.883000000
C    -1.134000000    -0.612000000    -8.659000000
H    -1.230000000    -0.403000000    -9.721000000
C     0.020000000    -1.255000000    -8.269000000
H     0.662000000    -1.725000000    -9.010000000
C     0.249000000    -1.553000000    -6.916000000
O     1.355000000    -2.275000000    -6.594000000
C     1.774000000    -2.674000000    -5.389000000
C     1.252000000    -3.838000000    -4.845000000
H     0.580000000    -4.518000000    -5.362000000
C     1.489000000    -4.107000000    -3.469000000
O     1.101000000    -5.350000000    -2.935000000
C     1.832000000    -5.932000000    -1.858000000
C     3.096000000    -6.565000000    -1.951000000
H     3.701000000    -6.669000000    -2.849000000
C     3.784000000    -7.003000000    -0.801000000
H     4.709000000    -7.568000000    -0.872000000
C     3.070000000    -7.021000000     0.408000000
H     3.658000000    -7.385000000     1.247000000
C     1.850000000    -6.374000000     0.556000000
C     1.242000000    -5.842000000    -0.602000000
H     0.249000000    -5.422000000    -0.462000000
C    -1.430000000    -1.039000000    -1.724000000
H    -1.650000000    -1.128000000    -2.785000000
C    -0.334000000    -0.228000000    -1.318000000
H     0.235000000     0.323000000    -2.063000000
C    -0.007000000    -0.062000000    -0.012000000
C     1.156000000     0.893000000     0.294000000
H     0.940000000     1.491000000     1.182000000
H     2.105000000     0.353000000     0.315000000
H     1.208000000     1.591000000    -0.544000000
C    -0.798000000    -0.582000000     0.982000000
H    -0.585000000    -0.506000000     2.045000000
C    -1.865000000    -1.388000000     0.629000000
H    -2.322000000    -1.952000000     1.439000000
C    -2.224000000    -1.625000000    -0.705000000
C    -3.564000000    -2.250000000    -1.049000000
O    -4.351000000    -2.555000000    -0.248000000
O    -3.804000000    -2.524000000    -2.222000000
O    -7.692000000    -3.124000000     1.470000000
H    -7.237000000    -3.280000000     0.643000000
H    -7.156000000    -3.569000000     2.126000000
O    -6.580000000    -4.609000000    -3.535000000
H    -5.931000000    -4.365000000    -4.196000000
H    -6.352000000    -5.507000000    -3.296000000
O    -6.551000000    -3.804000000    -0.992000000
H    -6.520000000    -3.957000000    -1.937000000
H    -5.725000000    -3.362000000    -0.795000000
O    -6.036000000    -7.160000000    -3.230000000
H    -5.490000000    -7.694000000    -2.653000000
H    -6.918000000    -7.514000000    -3.121000000
O    -2.029000000    -5.255000000    -5.227000000
H    -2.871000000    -5.695000000    -5.348000000
H    -2.054000000    -4.935000000    -4.325000000
O    -7.926000000    -6.037000000    -0.147000000
H    -7.490000000    -5.208000000    -0.344000000
H    -8.652000000    -5.795000000     0.428000000
O    -6.021000000    -1.293000000    -6.206000000
H    -6.771000000    -1.654000000    -5.734000000
H    -5.305000000    -1.900000000    -6.019000000
O    -2.513000000    -4.752000000    -2.672000000
H    -2.731000000    -5.275000000    -1.901000000
H    -3.033000000    -3.954000000    -2.575000000
O    -8.497000000    -0.831000000     0.367000000
H    -8.102000000    -1.603000000     0.774000000
H    -8.052000000    -0.090000000     0.777000000
O    -6.098000000    -0.717000000    -2.095000000
H    -5.201000000    -1.021000000    -2.232000000
H    -6.447000000    -1.297000000    -1.418000000
O    -3.785000000    -4.430000000     1.383000000
H    -4.093000000    -3.713000000     0.828000000
H    -4.572000000    -4.742000000     1.830000000
O    -2.873000000    -6.682000000    -0.310000000
H    -2.999000000    -5.992000000     0.341000000
H    -3.664000000    -7.218000000    -0.247000000
O    -5.351000000    -7.486000000     0.074000000
H    -5.482000000    -8.404000000    -0.163000000
H    -6.222000000    -7.095000000     0.009000000
O    -0.856000000    -8.479000000    -1.111000000
H    -1.102000000    -8.704000000    -2.009000000
H    -1.425000000    -7.744000000    -0.885000000
O    -7.876000000     0.538000000    -4.024000000
H    -7.236000000     0.348000000    -3.338000000
H    -7.929000000    -0.271000000    -4.533000000
O    -4.242000000    -3.199000000    -4.855000000
H    -3.457000000    -3.437000000    -5.348000000
H    -3.913000000    -2.923000000    -4.000000000
O    -5.584000000    -6.354000000     2.609000000
H    -4.892000000    -6.555000000     3.240000000
H    -5.362000000    -6.874000000     1.837000000
O    -7.927000000    -2.233000000    -4.513000000
H    -8.522000000    -2.744000000    -3.964000000
H    -7.055000000    -2.560000000    -4.291000000
O    -6.295000000    -3.483000000     4.147000000
H    -6.331000000    -4.396000000     4.432000000
H    -5.500000000    -3.137000000     4.552000000
