218
-1453.92248
C    -4.561000000     0.888000000     1.892000000
H    -4.339000000     1.645000000     1.144000000
C    -3.670000000     0.602000000     2.909000000
C    -3.888000000    -0.551000000     3.671000000
H    -3.227000000    -0.807000000     4.495000000
C    -2.439000000     1.415000000     3.032000000
O    -2.712000000     2.769000000     2.773000000
H    -1.709000000     1.032000000     2.303000000
O    -1.805000000     1.332000000     4.382000000
C    -0.439000000     1.265000000     4.353000000
C     0.159000000     0.089000000     4.698000000
H    -0.433000000    -0.767000000     5.013000000
C     1.513000000    -0.052000000     4.553000000
O     1.979000000    -1.362000000     4.603000000
C     2.312000000     1.068000000     4.237000000
C     3.786000000     0.935000000     4.026000000
H     4.343000000     1.809000000     4.372000000
C     4.130000000     0.628000000     2.609000000
C     4.408000000     1.631000000     1.686000000
H     4.504000000     2.684000000     1.936000000
H     4.169000000     0.206000000     4.743000000
C     1.755000000     2.326000000     4.077000000
H     2.380000000     3.189000000     3.865000000
C     0.376000000     2.448000000     4.200000000
C    -0.237000000     3.864000000     3.979000000
H     0.496000000     4.636000000     4.225000000
H    -1.152000000     3.899000000     4.574000000
C    -0.619000000     4.055000000     2.493000000
C     0.324000000     4.591000000     1.587000000
H     1.289000000     4.822000000     2.031000000
C    -1.821000000     3.519000000     1.974000000
C    -2.141000000     3.631000000     0.638000000
H    -3.083000000     3.236000000     0.265000000
C    -1.258000000     4.246000000    -0.252000000
O    -1.559000000     4.354000000    -1.559000000
C    -0.979000000     3.541000000    -2.457000000
C    -1.932000000     2.921000000    -3.520000000
C    -1.574000000     2.799000000    -4.904000000
H    -0.568000000     3.019000000    -5.251000000
C    -3.184000000     2.524000000    -3.095000000
H    -3.515000000     2.909000000    -2.134000000
O     0.148000000     4.118000000    -3.138000000
H    -0.560000000     2.690000000    -1.899000000
C    -0.049000000     4.757000000     0.231000000
C     0.956000000     5.415000000    -0.755000000
H     1.674000000     6.006000000    -0.183000000
H     0.457000000     6.108000000    -1.436000000
C     1.854000000     4.487000000    -1.548000000
C     3.077000000     4.093000000    -1.016000000
H     3.347000000     4.541000000    -0.063000000
C     1.405000000     3.816000000    -2.696000000
C     2.062000000     2.728000000    -3.193000000
H     1.792000000     2.165000000    -4.083000000
C     3.252000000     2.281000000    -2.573000000
O     3.789000000     1.092000000    -2.970000000
C     3.469000000    -0.168000000    -2.158000000
C     2.983000000    -1.354000000    -2.969000000
C     2.098000000    -1.097000000    -4.021000000
H     1.745000000    -0.088000000    -4.217000000
C     3.374000000    -2.661000000    -2.746000000
H     3.992000000    -2.880000000    -1.879000000
O     4.676000000    -0.426000000    -1.394000000
H     2.658000000     0.093000000    -1.462000000
C     3.757000000     2.953000000    -1.441000000
C     4.901000000     2.378000000    -0.628000000
H     5.391000000     3.213000000    -0.122000000
H     5.674000000     1.969000000    -1.281000000
C     4.627000000     1.273000000     0.351000000
C     4.603000000    -0.061000000    -0.033000000
C     4.349000000    -1.026000000     0.901000000
H     4.242000000    -2.069000000     0.612000000
C     3.996000000    -0.683000000     2.164000000
O     3.547000000    -1.770000000     2.882000000
C     2.179000000    -1.900000000     3.269000000
H     1.539000000    -1.390000000     2.534000000
C     1.698000000    -3.355000000     3.224000000
C     0.496000000    -3.767000000     3.870000000
H     0.085000000    -3.129000000     4.648000000
C     2.170000000    -4.235000000     2.230000000
H     2.992000000    -3.941000000     1.582000000
C     1.466000000    -5.411000000     1.904000000
O     2.064000000    -6.357000000     1.059000000
C     0.327000000    -5.715000000     2.538000000
H    -0.161000000    -6.677000000     2.407000000
C    -0.183000000    -4.979000000     3.533000000
O    -1.274000000    -5.445000000     4.264000000
C    -2.164000000    -4.645000000     4.920000000
C    -3.080000000    -3.980000000     4.183000000
H    -3.032000000    -3.981000000     3.097000000
C    -2.044000000    -4.574000000     6.295000000
H    -1.356000000    -5.241000000     6.808000000
C    -2.930000000    -3.795000000     6.981000000
H    -2.851000000    -3.708000000     8.062000000
C    -3.963000000    -3.223000000     6.323000000
H    -4.777000000    -2.828000000     6.924000000
C    -4.073000000    -3.215000000     4.912000000
O    -5.084000000    -2.498000000     4.324000000
C    -4.958000000    -1.385000000     3.470000000
C    -5.861000000    -1.068000000     2.484000000
H    -6.721000000    -1.727000000     2.393000000
C    -5.660000000     0.030000000     1.670000000
O    -6.536000000     0.263000000     0.621000000
C    -6.419000000     1.281000000    -0.295000000
C    -6.055000000     0.983000000    -1.659000000
H    -5.777000000    -0.057000000    -1.811000000
C    -6.823000000     2.547000000     0.067000000
H    -7.041000000     2.810000000     1.099000000
C    -6.767000000     3.553000000    -0.899000000
H    -6.936000000     4.616000000    -0.750000000
C    -6.344000000     3.274000000    -2.182000000
H    -6.408000000     4.124000000    -2.857000000
C    -6.015000000     2.033000000    -2.612000000
O    -5.486000000     1.812000000    -3.861000000
C    -4.140000000     2.009000000    -4.031000000
C    -3.706000000     1.752000000    -5.373000000
H    -4.314000000     1.279000000    -6.140000000
C    -2.467000000     2.172000000    -5.760000000
O    -2.017000000     1.710000000    -7.000000000
C    -0.843000000     1.093000000    -7.110000000
C    -0.610000000    -0.006000000    -6.330000000
H    -1.340000000    -0.381000000    -5.618000000
C     0.184000000     1.622000000    -7.918000000
H     0.088000000     2.548000000    -8.477000000
C     1.377000000     0.914000000    -8.038000000
H     2.152000000     1.381000000    -8.642000000
C     1.531000000    -0.260000000    -7.352000000
H     2.350000000    -0.944000000    -7.557000000
C     0.592000000    -0.702000000    -6.422000000
O     0.681000000    -1.963000000    -5.824000000
C     1.622000000    -2.198000000    -4.820000000
C     2.103000000    -3.442000000    -4.651000000
H     1.811000000    -4.232000000    -5.337000000
C     2.918000000    -3.681000000    -3.596000000
O     3.235000000    -5.028000000    -3.301000000
C     3.557000000    -5.380000000    -2.029000000
C     4.920000000    -5.561000000    -1.685000000
H     5.718000000    -5.347000000    -2.391000000
C     5.368000000    -5.856000000    -0.377000000
H     6.429000000    -5.767000000    -0.162000000
C     4.404000000    -6.163000000     0.536000000
H     4.609000000    -6.416000000     1.573000000
C     3.009000000    -6.086000000     0.159000000
C     2.589000000    -5.600000000    -1.089000000
H     1.555000000    -5.454000000    -1.390000000
C    -1.118000000    -1.159000000    -2.013000000
H    -1.007000000    -1.341000000    -3.079000000
C    -0.158000000    -0.445000000    -1.309000000
H     0.577000000     0.177000000    -1.814000000
C    -0.186000000    -0.230000000     0.021000000
C     0.747000000     0.758000000     0.615000000
H     0.257000000     1.291000000     1.433000000
H     1.701000000     0.287000000     0.863000000
H     0.996000000     1.558000000    -0.084000000
C    -1.056000000    -0.960000000     0.792000000
H    -1.113000000    -0.960000000     1.878000000
C    -1.958000000    -1.837000000     0.125000000
H    -2.605000000    -2.500000000     0.693000000
C    -2.038000000    -1.935000000    -1.296000000
C    -3.039000000    -2.874000000    -2.043000000
O    -3.875000000    -3.489000000    -1.393000000
O    -2.927000000    -3.130000000    -3.245000000
O    -3.241000000    -5.438000000     0.344000000
H    -3.168000000    -4.637000000    -0.175000000
H    -2.696000000    -6.074000000    -0.119000000
O    -3.169000000    -6.536000000    -6.160000000
H    -2.795000000    -7.384000000    -6.400000000
H    -3.864000000    -6.749000000    -5.537000000
O    -4.129000000    -8.633000000    -1.335000000
H    -4.162000000    -8.954000000    -2.236000000
H    -3.370000000    -9.073000000    -0.952000000
O    -6.747000000    -6.448000000    -4.401000000
H    -6.917000000    -7.034000000    -5.138000000
H    -6.120000000    -6.923000000    -3.856000000
O    -8.375000000    -2.005000000    -2.089000000
H    -9.009000000    -2.465000000    -2.639000000
H    -7.549000000    -2.465000000    -2.239000000
O    -6.423000000    -3.919000000    -2.214000000
H    -6.443000000    -4.869000000    -2.325000000
H    -5.538000000    -3.732000000    -1.901000000
O     0.631000000    -7.610000000    -3.980000000
H     0.665000000    -7.914000000    -4.887000000
H     0.034000000    -6.862000000    -4.000000000
O    -5.463000000    -2.386000000    -4.264000000
H    -5.983000000    -2.771000000    -3.559000000
H    -4.556000000    -2.578000000    -4.024000000
O    -1.211000000    -6.473000000    -1.262000000
H    -0.440000000    -7.018000000    -1.105000000
H    -0.855000000    -5.621000000    -1.515000000
O    -5.789000000    -2.399000000    -7.009000000
H    -5.801000000    -2.334000000    -6.054000000
H    -5.020000000    -1.896000000    -7.274000000
O    -7.265000000    -0.295000000    -5.125000000
H    -6.704000000    -1.068000000    -5.057000000
H    -6.911000000     0.316000000    -4.480000000
O    -6.663000000    -6.949000000    -1.106000000
H    -5.760000000    -7.175000000    -0.884000000
H    -6.951000000    -6.381000000    -0.390000000
O    -3.880000000    -6.112000000    -3.116000000
H    -3.387000000    -6.714000000    -2.558000000
H    -3.907000000    -5.294000000    -2.620000000
O    -0.995000000    -5.406000000    -3.901000000
H    -1.904000000    -5.661000000    -4.061000000
H    -1.043000000    -4.477000000    -3.677000000
O    -8.614000000    -3.177000000     0.858000000
H    -8.588000000    -4.134000000     0.869000000
H    -8.317000000    -2.939000000    -0.020000000
O    -0.679000000    -3.119000000    -8.121000000
H    -1.093000000    -3.031000000    -7.262000000
H     0.238000000    -3.310000000    -7.927000000
O    -7.007000000    -5.134000000     3.156000000
H    -6.484000000    -4.552000000     2.604000000
H    -7.244000000    -5.861000000     2.579000000
O    -2.579000000    -3.325000000    -5.757000000
H    -2.928000000    -4.133000000    -6.133000000
H    -2.784000000    -3.387000000    -4.824000000
O    -5.019000000    -4.188000000     1.571000000
H    -4.915000000    -3.381000000     1.067000000
H    -4.441000000    -4.817000000     1.140000000
