218
-1465.57508
C    -3.703000000     0.489000000     2.714000000
H    -3.670000000     1.081000000     1.803000000
C    -2.774000000     0.755000000     3.778000000
C    -2.676000000    -0.164000000     4.853000000
H    -1.979000000     0.065000000     5.655000000
C    -1.722000000     1.869000000     3.564000000
O    -2.272000000     3.182000000     3.384000000
H    -1.196000000     1.586000000     2.640000000
O    -0.708000000     1.896000000     4.573000000
C     0.564000000     1.881000000     4.160000000
C     1.286000000     0.638000000     4.335000000
H     0.875000000    -0.237000000     4.831000000
C     2.604000000     0.644000000     3.949000000
O     3.235000000    -0.597000000     3.939000000
C     3.213000000     1.728000000     3.354000000
C     4.590000000     1.673000000     2.735000000
H     5.098000000     2.637000000     2.813000000
C     4.389000000     1.081000000     1.301000000
C     4.345000000     2.057000000     0.280000000
H     4.428000000     3.126000000     0.458000000
H     5.291000000     0.975000000     3.198000000
C     2.498000000     3.002000000     3.216000000
H     2.944000000     3.769000000     2.589000000
C     1.126000000     3.003000000     3.591000000
C     0.381000000     4.272000000     3.441000000
H     1.093000000     5.099000000     3.403000000
H    -0.146000000     4.567000000     4.351000000
C    -0.399000000     4.330000000     2.219000000
C     0.158000000     4.781000000     1.040000000
H     1.167000000     5.183000000     1.083000000
C    -1.774000000     3.909000000     2.243000000
C    -2.486000000     3.839000000     1.014000000
H    -3.464000000     3.367000000     1.057000000
C    -1.898000000     4.297000000    -0.181000000
O    -2.476000000     4.098000000    -1.366000000
C    -1.966000000     3.009000000    -2.237000000
C    -3.128000000     2.204000000    -2.906000000
C    -2.864000000     1.237000000    -3.914000000
H    -1.852000000     1.215000000    -4.310000000
C    -4.363000000     2.212000000    -2.297000000
H    -4.561000000     2.785000000    -1.395000000
O    -1.080000000     3.517000000    -3.308000000
H    -1.467000000     2.217000000    -1.659000000
C    -0.567000000     4.808000000    -0.157000000
C     0.181000000     5.376000000    -1.359000000
H     0.815000000     6.183000000    -0.985000000
H    -0.484000000     5.821000000    -2.102000000
C     0.926000000     4.307000000    -2.217000000
C     2.324000000     4.147000000    -1.982000000
H     2.747000000     4.731000000    -1.168000000
C     0.269000000     3.497000000    -3.154000000
C     0.996000000     2.524000000    -3.814000000
H     0.446000000     1.829000000    -4.444000000
C     2.347000000     2.343000000    -3.609000000
O     3.028000000     1.241000000    -4.158000000
C     2.946000000     0.068000000    -3.310000000
C     2.568000000    -1.209000000    -4.048000000
C     2.011000000    -1.114000000    -5.341000000
H     2.032000000    -0.142000000    -5.828000000
C     2.577000000    -2.441000000    -3.398000000
H     3.017000000    -2.486000000    -2.405000000
O     4.232000000    -0.128000000    -2.683000000
H     2.285000000     0.290000000    -2.460000000
C     2.964000000     3.119000000    -2.581000000
C     4.399000000     2.703000000    -2.098000000
H     4.935000000     3.463000000    -1.526000000
H     5.073000000     2.513000000    -2.937000000
C     4.411000000     1.683000000    -1.056000000
C     4.328000000     0.283000000    -1.390000000
C     4.338000000    -0.659000000    -0.343000000
H     4.300000000    -1.719000000    -0.585000000
C     4.389000000    -0.260000000     0.972000000
O     4.358000000    -1.215000000     1.934000000
C     3.159000000    -1.333000000     2.672000000
H     2.442000000    -0.758000000     2.066000000
C     2.712000000    -2.788000000     2.869000000
C     2.035000000    -3.189000000     4.018000000
H     2.003000000    -2.498000000     4.856000000
C     2.900000000    -3.738000000     1.877000000
H     3.546000000    -3.419000000     1.064000000
C     2.344000000    -5.025000000     1.940000000
O     2.737000000    -5.968000000     1.067000000
C     1.634000000    -5.398000000     3.079000000
H     1.184000000    -6.381000000     3.197000000
C     1.426000000    -4.464000000     4.153000000
O     0.667000000    -4.841000000     5.204000000
C    -0.125000000    -3.994000000     5.948000000
C    -1.309000000    -3.505000000     5.451000000
H    -1.554000000    -3.756000000     4.422000000
C     0.239000000    -3.848000000     7.266000000
H     1.147000000    -4.282000000     7.678000000
C    -0.580000000    -3.140000000     8.111000000
H    -0.228000000    -3.012000000     9.132000000
C    -1.728000000    -2.538000000     7.595000000
H    -2.287000000    -1.828000000     8.199000000
C    -2.075000000    -2.741000000     6.279000000
O    -3.309000000    -2.296000000     5.832000000
C    -3.465000000    -1.305000000     4.835000000
C    -4.475000000    -1.458000000     3.875000000
H    -4.973000000    -2.423000000     3.827000000
C    -4.607000000    -0.567000000     2.793000000
O    -5.448000000    -0.788000000     1.781000000
C    -6.195000000     0.208000000     1.187000000
C    -6.015000000     0.339000000    -0.215000000
H    -5.308000000    -0.345000000    -0.676000000
C    -7.149000000     0.978000000     1.867000000
H    -7.276000000     0.796000000     2.931000000
C    -7.904000000     1.886000000     1.144000000
H    -8.602000000     2.514000000     1.690000000
C    -7.650000000     2.131000000    -0.211000000
H    -8.278000000     2.737000000    -0.859000000
C    -6.782000000     1.310000000    -0.944000000
O    -6.695000000     1.490000000    -2.326000000
C    -5.415000000     1.496000000    -2.887000000
C    -5.146000000     0.616000000    -3.957000000
H    -5.922000000    -0.064000000    -4.299000000
C    -3.861000000     0.514000000    -4.466000000
O    -3.512000000    -0.397000000    -5.475000000
C    -2.466000000    -0.271000000    -6.307000000
C    -1.479000000    -1.287000000    -6.324000000
H    -1.579000000    -2.132000000    -5.648000000
C    -2.367000000     0.804000000    -7.191000000
H    -3.137000000     1.571000000    -7.190000000
C    -1.245000000     0.858000000    -8.068000000
H    -1.024000000     1.674000000    -8.753000000
C    -0.251000000    -0.076000000    -8.032000000
H     0.708000000     0.078000000    -8.520000000
C    -0.413000000    -1.186000000    -7.144000000
O     0.610000000    -2.085000000    -7.079000000
C     1.381000000    -2.210000000    -5.951000000
C     1.315000000    -3.380000000    -5.217000000
H     0.760000000    -4.131000000    -5.773000000
C     1.996000000    -3.542000000    -4.020000000
O     2.024000000    -4.779000000    -3.379000000
C     2.923000000    -5.201000000    -2.483000000
C     4.280000000    -5.435000000    -2.733000000
H     4.646000000    -5.164000000    -3.720000000
C     5.113000000    -5.898000000    -1.669000000
H     6.179000000    -6.092000000    -1.750000000
C     4.615000000    -6.037000000    -0.398000000
H     5.228000000    -6.306000000     0.458000000
C     3.233000000    -5.825000000    -0.175000000
C     2.428000000    -5.375000000    -1.234000000
H     1.360000000    -5.268000000    -1.062000000
C    -1.121000000    -1.639000000    -1.838000000
H    -1.384000000    -1.883000000    -2.864000000
C    -0.216000000    -0.613000000    -1.635000000
H     0.292000000     0.026000000    -2.353000000
C     0.245000000    -0.292000000    -0.335000000
C     1.058000000     0.907000000     0.034000000
H     1.878000000     0.730000000     0.732000000
H     1.432000000     1.490000000    -0.810000000
H     0.435000000     1.604000000     0.599000000
C    -0.277000000    -0.973000000     0.774000000
H     0.046000000    -0.697000000     1.775000000
C    -1.198000000    -2.021000000     0.548000000
H    -1.533000000    -2.623000000     1.388000000
C    -1.602000000    -2.334000000    -0.744000000
C    -2.433000000    -3.527000000    -1.022000000
O    -2.854000000    -4.206000000    -0.092000000
O    -2.639000000    -3.861000000    -2.179000000
O    -1.606000000    -5.231000000     2.328000000
H    -1.730000000    -4.545000000     1.672000000
H    -1.576000000    -6.043000000     1.822000000
O     0.394000000    -9.404000000     0.576000000
H     0.126000000    -9.181000000     1.468000000
H    -0.244000000    -8.961000000     0.016000000
O    -1.279000000    -8.115000000     2.661000000
H    -1.624000000    -8.824000000     3.204000000
H    -1.325000000    -7.341000000     3.221000000
O    -4.394000000   -10.090000000     0.041000000
H    -4.854000000   -10.674000000    -0.562000000
H    -4.001000000    -9.424000000    -0.523000000
O    -7.287000000    -5.275000000    -3.548000000
H    -6.785000000    -4.484000000    -3.350000000
H    -7.591000000    -5.585000000    -2.695000000
O    -7.505000000    -2.558000000     0.186000000
H    -6.857000000    -1.892000000     0.411000000
H    -7.080000000    -3.389000000     0.401000000
O    -2.613000000    -6.427000000    -5.496000000
H    -3.055000000    -6.378000000    -4.648000000
H    -2.180000000    -7.281000000    -5.491000000
O    -4.763000000    -2.506000000    -3.081000000
H    -4.127000000    -3.031000000    -2.596000000
H    -4.256000000    -2.110000000    -3.790000000
O    -5.804000000    -5.960000000    -5.899000000
H    -6.267000000    -5.723000000    -5.095000000
H    -4.890000000    -5.736000000    -5.724000000
O    -1.621000000    -8.700000000    -1.686000000
H    -0.836000000    -8.168000000    -1.822000000
H    -2.304000000    -8.066000000    -1.468000000
O    -7.366000000    -1.818000000    -2.730000000
H    -6.438000000    -2.050000000    -2.702000000
H    -7.733000000    -2.201000000    -1.934000000
O    -3.778000000    -7.068000000    -0.643000000
H    -4.573000000    -6.924000000    -0.131000000
H    -3.277000000    -6.258000000    -0.541000000
O    -4.228000000    -5.814000000    -3.266000000
H    -4.673000000    -6.025000000    -2.445000000
H    -3.650000000    -5.083000000    -3.043000000
O    -6.650000000    -6.885000000     0.526000000
H    -7.222000000    -6.229000000     0.127000000
H    -6.879000000    -7.703000000     0.085000000
O    -8.578000000    -5.490000000    -1.149000000
H    -8.458000000    -5.007000000    -0.331000000
H    -9.525000000    -5.496000000    -1.287000000
O    -5.936000000    -4.964000000     4.727000000
H    -5.220000000    -5.071000000     4.100000000
H    -6.674000000    -5.424000000     4.327000000
O    -4.443000000    -6.113000000     2.869000000
H    -4.726000000    -7.010000000     2.692000000
H    -3.528000000    -6.199000000     3.137000000
O    -0.730000000    -5.890000000    -2.208000000
H    -0.124000000    -5.180000000    -2.422000000
H    -1.573000000    -5.454000000    -2.079000000
O    -5.597000000    -4.427000000     0.306000000
H    -4.645000000    -4.349000000     0.241000000
H    -5.737000000    -5.178000000     0.883000000
