218
-1460.51333
C    -2.894000000     1.454000000     3.547000000
H    -2.956000000     2.196000000     2.755000000
C    -1.629000000     1.339000000     4.170000000
C    -1.529000000     0.325000000     5.231000000
H    -0.579000000     0.223000000     5.749000000
C    -0.508000000     2.078000000     3.645000000
O    -0.708000000     3.423000000     3.520000000
H    -0.242000000     1.687000000     2.652000000
O     0.659000000     1.916000000     4.429000000
C     1.844000000     1.489000000     3.924000000
C     2.076000000     0.162000000     3.933000000
H     1.380000000    -0.615000000     4.238000000
C     3.201000000    -0.260000000     3.143000000
O     3.453000000    -1.569000000     2.910000000
C     4.025000000     0.606000000     2.506000000
C     5.209000000     0.221000000     1.631000000
H     5.927000000     1.044000000     1.649000000
C     4.836000000    -0.106000000     0.169000000
C     4.875000000     0.903000000    -0.790000000
H     5.124000000     1.888000000    -0.404000000
H     5.655000000    -0.685000000     2.048000000
C     3.720000000     1.940000000     2.480000000
H     4.397000000     2.633000000     1.987000000
C     2.610000000     2.365000000     3.180000000
C     2.258000000     3.873000000     3.224000000
H     3.115000000     4.533000000     3.076000000
H     1.961000000     4.166000000     4.233000000
C     1.186000000     4.302000000     2.281000000
C     1.634000000     4.791000000     1.029000000
H     2.661000000     4.948000000     0.710000000
C    -0.176000000     4.075000000     2.384000000
C    -1.071000000     4.435000000     1.403000000
H    -2.131000000     4.241000000     1.546000000
C    -0.660000000     4.960000000     0.202000000
O    -1.559000000     4.918000000    -0.856000000
C    -1.613000000     3.691000000    -1.641000000
C    -2.960000000     3.217000000    -2.002000000
C    -3.178000000     2.401000000    -3.121000000
H    -2.284000000     2.138000000    -3.681000000
C    -4.059000000     3.383000000    -1.122000000
H    -3.908000000     4.001000000    -0.241000000
O    -0.834000000     3.941000000    -2.854000000
H    -1.170000000     2.839000000    -1.104000000
C     0.728000000     5.070000000    -0.029000000
C     1.332000000     5.386000000    -1.411000000
H     2.236000000     5.997000000    -1.453000000
H     0.632000000     6.019000000    -1.962000000
C     1.536000000     4.077000000    -2.191000000
C     2.787000000     3.566000000    -2.269000000
H     3.597000000     4.096000000    -1.775000000
C     0.437000000     3.523000000    -2.909000000
C     0.557000000     2.309000000    -3.499000000
H    -0.298000000     1.822000000    -3.962000000
C     1.864000000     1.770000000    -3.645000000
O     1.943000000     0.570000000    -4.285000000
C     2.048000000    -0.721000000    -3.559000000
C     1.244000000    -1.850000000    -4.143000000
C     0.067000000    -1.572000000    -4.756000000
H    -0.338000000    -0.564000000    -4.798000000
C     1.705000000    -3.174000000    -4.047000000
H     2.624000000    -3.330000000    -3.488000000
O     3.479000000    -0.990000000    -3.564000000
H     1.735000000    -0.674000000    -2.506000000
C     2.959000000     2.333000000    -2.960000000
C     4.339000000     1.731000000    -3.157000000
H     5.189000000     2.399000000    -3.001000000
H     4.426000000     1.260000000    -4.139000000
C     4.579000000     0.641000000    -2.120000000
C     4.160000000    -0.700000000    -2.463000000
C     3.972000000    -1.670000000    -1.471000000
H     3.510000000    -2.629000000    -1.687000000
C     4.332000000    -1.355000000    -0.154000000
O     4.107000000    -2.318000000     0.800000000
C     2.992000000    -2.165000000     1.694000000
H     2.294000000    -1.447000000     1.238000000
C     2.150000000    -3.501000000     1.849000000
C     1.380000000    -3.661000000     2.972000000
H     1.465000000    -2.992000000     3.825000000
C     2.085000000    -4.411000000     0.809000000
H     2.580000000    -4.192000000    -0.134000000
C     1.274000000    -5.532000000     0.982000000
O     0.951000000    -6.361000000    -0.033000000
C     0.451000000    -5.708000000     2.121000000
H    -0.284000000    -6.509000000     2.118000000
C     0.488000000    -4.762000000     3.115000000
O    -0.411000000    -4.884000000     4.145000000
C    -0.455000000    -4.117000000     5.273000000
C    -1.527000000    -3.218000000     5.332000000
H    -2.184000000    -3.170000000     4.467000000
C     0.516000000    -4.127000000     6.305000000
H     1.361000000    -4.807000000     6.254000000
C     0.438000000    -3.251000000     7.344000000
H     1.164000000    -3.215000000     8.152000000
C    -0.638000000    -2.333000000     7.418000000
H    -0.714000000    -1.603000000     8.220000000
C    -1.639000000    -2.429000000     6.467000000
O    -2.550000000    -1.436000000     6.523000000
C    -2.611000000    -0.569000000     5.476000000
C    -3.820000000    -0.312000000     4.816000000
H    -4.712000000    -0.845000000     5.135000000
C    -3.958000000     0.651000000     3.867000000
O    -5.177000000     0.732000000     3.248000000
C    -5.604000000     1.935000000     2.787000000
C    -5.625000000     2.011000000     1.426000000
H    -5.350000000     1.095000000     0.910000000
C    -6.029000000     2.983000000     3.565000000
H    -6.019000000     3.000000000     4.652000000
C    -6.607000000     4.100000000     2.990000000
H    -6.918000000     4.966000000     3.569000000
C    -6.631000000     4.207000000     1.626000000
H    -7.056000000     5.102000000     1.179000000
C    -6.157000000     3.110000000     0.857000000
O    -6.306000000     3.196000000    -0.529000000
C    -5.292000000     2.801000000    -1.338000000
C    -5.552000000     2.137000000    -2.513000000
H    -6.561000000     1.859000000    -2.808000000
C    -4.477000000     1.854000000    -3.356000000
O    -4.832000000     1.147000000    -4.491000000
C    -3.798000000     0.715000000    -5.363000000
C    -3.306000000    -0.517000000    -5.148000000
H    -3.723000000    -1.065000000    -4.307000000
C    -3.480000000     1.458000000    -6.502000000
H    -4.039000000     2.315000000    -6.869000000
C    -2.413000000     1.095000000    -7.316000000
H    -2.071000000     1.684000000    -8.164000000
C    -1.866000000    -0.193000000    -7.087000000
H    -1.069000000    -0.566000000    -7.725000000
C    -2.340000000    -1.027000000    -6.054000000
O    -1.942000000    -2.351000000    -5.863000000
C    -0.649000000    -2.621000000    -5.305000000
C    -0.164000000    -3.916000000    -5.300000000
H    -0.770000000    -4.763000000    -5.611000000
C     0.992000000    -4.201000000    -4.661000000
O     1.496000000    -5.519000000    -4.636000000
C     1.920000000    -6.043000000    -3.489000000
C     3.221000000    -6.536000000    -3.445000000
H     3.859000000    -6.557000000    -4.325000000
C     3.703000000    -7.056000000    -2.257000000
H     4.648000000    -7.594000000    -2.261000000
C     2.940000000    -7.028000000    -1.072000000
H     3.346000000    -7.494000000    -0.178000000
C     1.721000000    -6.475000000    -1.126000000
C     1.116000000    -5.968000000    -2.328000000
H     0.090000000    -5.609000000    -2.340000000
C    -2.358000000    -0.517000000    -1.070000000
H    -2.944000000    -0.658000000    -1.975000000
C    -1.152000000     0.112000000    -1.072000000
H    -0.807000000     0.524000000    -2.017000000
C    -0.347000000     0.201000000     0.082000000
C     0.929000000     0.951000000     0.004000000
H     1.254000000     1.187000000     1.019000000
H     1.724000000     0.460000000    -0.562000000
H     0.758000000     1.869000000    -0.562000000
C    -0.756000000    -0.453000000     1.324000000
H    -0.170000000    -0.373000000     2.236000000
C    -1.876000000    -1.250000000     1.315000000
H    -2.112000000    -1.735000000     2.258000000
C    -2.718000000    -1.136000000     0.152000000
C    -4.167000000    -1.760000000     0.104000000
O    -4.594000000    -2.357000000     1.109000000
O    -4.768000000    -1.871000000    -0.899000000
O    -1.527000000    -3.671000000    -1.505000000
H    -1.371000000    -3.050000000    -0.794000000
H    -1.758000000    -4.488000000    -1.064000000
O    -2.313000000    -6.953000000    -3.761000000
H    -2.996000000    -6.298000000    -3.907000000
H    -1.836000000    -6.992000000    -4.590000000
O    -5.152000000    -7.017000000    -1.781000000
H    -5.524000000    -7.420000000    -0.996000000
H    -4.928000000    -7.756000000    -2.347000000
O    -8.569000000    -2.225000000    -4.064000000
H    -7.799000000    -1.929000000    -3.579000000
H    -9.062000000    -1.424000000    -4.242000000
O    -4.510000000    -3.937000000     5.801000000
H    -4.934000000    -3.640000000     4.996000000
H    -4.567000000    -3.186000000     6.392000000
O    -2.649000000    -5.930000000    -0.357000000
H    -3.199000000    -5.600000000     0.353000000
H    -3.267000000    -6.163000000    -1.050000000
O    -6.095000000    -0.915000000    -2.919000000
H    -5.751000000    -1.468000000    -2.218000000
H    -5.449000000    -0.215000000    -3.011000000
O    -7.482000000    -1.411000000     4.241000000
H    -7.693000000    -1.879000000     5.049000000
H    -6.636000000    -1.768000000     3.972000000
O    -7.450000000    -2.629000000    -0.367000000
H    -6.573000000    -2.312000000    -0.147000000
H    -7.296000000    -3.403000000    -0.909000000
O    -9.281000000     0.851000000     4.324000000
H    -8.556000000     0.226000000     4.314000000
H    -9.227000000     1.294000000     3.477000000
O    -5.285000000    -4.816000000     1.057000000
H    -5.722000000    -5.072000000     0.246000000
H    -5.191000000    -3.866000000     0.990000000
O    -5.472000000    -3.520000000    -4.920000000
H    -4.848000000    -3.938000000    -4.326000000
H    -5.434000000    -2.591000000    -4.692000000
O    -9.074000000     1.718000000    -2.462000000
H    -8.805000000     1.227000000    -1.686000000
H    -9.315000000     2.582000000    -2.127000000
O    -8.302000000     0.006000000    -0.191000000
H    -8.095000000    -0.928000000    -0.227000000
H    -8.235000000     0.231000000     0.737000000
O   -10.113000000    -2.923000000    -0.635000000
H    -9.268000000    -2.656000000    -0.274000000
H    -9.899000000    -3.620000000    -1.256000000
O    -6.664000000    -4.674000000    -1.854000000
H    -6.953000000    -4.519000000    -2.753000000
H    -6.521000000    -5.619000000    -1.808000000
O    -3.865000000    -6.325000000     2.533000000
H    -4.353000000    -5.733000000     1.961000000
H    -4.496000000    -6.584000000     3.205000000
O    -3.713000000    -4.329000000    -2.946000000
H    -4.168000000    -4.507000000    -2.123000000
H    -2.910000000    -3.880000000    -2.683000000
O    -5.363000000    -3.032000000     3.457000000
H    -4.970000000    -2.577000000     2.712000000
H    -5.853000000    -3.755000000     3.065000000
