218
-1459.39371
C    -2.650000000     2.441000000     4.413000000
H    -2.965000000     3.298000000     3.824000000
C    -1.321000000     2.005000000     4.519000000
C    -1.069000000     0.911000000     5.334000000
H    -0.047000000     0.558000000     5.440000000
C    -0.290000000     2.626000000     3.655000000
O    -0.608000000     4.009000000     3.301000000
H    -0.234000000     2.072000000     2.706000000
O     1.049000000     2.657000000     4.286000000
C     2.134000000     2.411000000     3.539000000
C     2.591000000     1.081000000     3.581000000
H     2.196000000     0.279000000     4.199000000
C     3.614000000     0.667000000     2.733000000
O     3.951000000    -0.659000000     2.745000000
C     4.161000000     1.602000000     1.860000000
C     5.368000000     1.179000000     1.011000000
H     6.035000000     2.043000000     1.004000000
C     4.982000000     0.596000000    -0.351000000
C     4.667000000     1.434000000    -1.457000000
H     4.837000000     2.507000000    -1.404000000
H     5.978000000     0.383000000     1.443000000
C     3.624000000     2.900000000     1.754000000
H     3.964000000     3.585000000     0.981000000
C     2.642000000     3.340000000     2.642000000
C     2.036000000     4.734000000     2.440000000
H     2.756000000     5.441000000     2.023000000
H     1.758000000     5.142000000     3.414000000
C     0.860000000     4.797000000     1.571000000
C     1.033000000     5.125000000     0.209000000
H     2.035000000     5.342000000    -0.151000000
C    -0.432000000     4.352000000     2.017000000
C    -1.472000000     4.248000000     1.117000000
H    -2.447000000     3.950000000     1.493000000
C    -1.247000000     4.554000000    -0.223000000
O    -2.253000000     4.371000000    -1.107000000
C    -2.259000000     3.179000000    -1.906000000
C    -3.547000000     2.429000000    -1.886000000
C    -3.902000000     1.619000000    -2.960000000
H    -3.270000000     1.481000000    -3.834000000
C    -4.329000000     2.339000000    -0.752000000
H    -4.024000000     2.994000000     0.061000000
O    -1.669000000     3.454000000    -3.259000000
H    -1.527000000     2.462000000    -1.506000000
C     0.023000000     4.942000000    -0.722000000
C     0.334000000     5.216000000    -2.262000000
H     1.209000000     5.841000000    -2.451000000
H    -0.459000000     5.720000000    -2.819000000
C     0.677000000     3.967000000    -3.138000000
C     1.991000000     3.438000000    -3.129000000
H     2.748000000     4.019000000    -2.609000000
C    -0.355000000     3.193000000    -3.535000000
C    -0.093000000     1.923000000    -4.101000000
H    -0.850000000     1.176000000    -4.323000000
C     1.192000000     1.460000000    -4.131000000
O     1.308000000     0.146000000    -4.644000000
C     1.678000000    -0.866000000    -3.631000000
C     1.079000000    -2.251000000    -3.802000000
C    -0.182000000    -2.265000000    -4.355000000
H    -0.684000000    -1.364000000    -4.699000000
C     1.715000000    -3.477000000    -3.612000000
H     2.715000000    -3.576000000    -3.197000000
O     3.118000000    -1.108000000    -3.645000000
H     1.476000000    -0.465000000    -2.627000000
C     2.236000000     2.226000000    -3.654000000
C     3.669000000     1.723000000    -3.710000000
H     4.409000000     2.507000000    -3.891000000
H     3.758000000     1.136000000    -4.627000000
C     4.040000000     0.859000000    -2.568000000
C     3.804000000    -0.477000000    -2.650000000
C     4.121000000    -1.232000000    -1.567000000
H     3.697000000    -2.223000000    -1.426000000
C     4.689000000    -0.719000000    -0.425000000
O     4.680000000    -1.519000000     0.683000000
C     3.545000000    -1.421000000     1.563000000
H     2.748000000    -0.819000000     1.103000000
C     2.831000000    -2.730000000     1.831000000
C     1.730000000    -2.794000000     2.681000000
H     1.305000000    -1.885000000     3.099000000
C     3.123000000    -3.936000000     1.123000000
H     4.067000000    -4.039000000     0.594000000
C     2.377000000    -5.088000000     1.327000000
O     2.803000000    -6.290000000     0.823000000
C     1.180000000    -5.063000000     2.014000000
H     0.689000000    -6.007000000     2.238000000
C     0.832000000    -3.908000000     2.712000000
O    -0.252000000    -3.937000000     3.458000000
C    -0.183000000    -3.460000000     4.775000000
C    -1.066000000    -2.436000000     5.178000000
H    -1.943000000    -2.196000000     4.582000000
C     0.790000000    -3.900000000     5.651000000
H     1.467000000    -4.716000000     5.410000000
C     0.982000000    -3.254000000     6.879000000
H     1.805000000    -3.653000000     7.466000000
C     0.113000000    -2.209000000     7.288000000
H     0.300000000    -1.683000000     8.221000000
C    -0.875000000    -1.774000000     6.406000000
O    -1.838000000    -0.894000000     6.766000000
C    -2.048000000     0.293000000     6.134000000
C    -3.401000000     0.744000000     5.987000000
H    -4.175000000     0.165000000     6.485000000
C    -3.687000000     1.854000000     5.131000000
O    -5.009000000     2.272000000     5.081000000
C    -5.553000000     2.609000000     3.877000000
C    -5.626000000     1.682000000     2.783000000
H    -5.271000000     0.659000000     2.876000000
C    -6.002000000     3.949000000     3.818000000
H    -5.999000000     4.593000000     4.694000000
C    -6.533000000     4.376000000     2.596000000
H    -6.826000000     5.422000000     2.564000000
C    -6.503000000     3.505000000     1.503000000
H    -6.975000000     3.818000000     0.576000000
C    -6.134000000     2.149000000     1.609000000
O    -6.151000000     1.336000000     0.498000000
C    -5.379000000     1.505000000    -0.614000000
C    -5.802000000     0.799000000    -1.735000000
H    -6.711000000     0.206000000    -1.682000000
C    -4.960000000     0.739000000    -2.916000000
O    -5.356000000    -0.080000000    -4.062000000
C    -4.455000000    -0.678000000    -4.980000000
C    -3.776000000    -1.851000000    -4.587000000
H    -3.963000000    -2.421000000    -3.681000000
C    -4.182000000     0.047000000    -6.105000000
H    -4.640000000     1.024000000    -6.242000000
C    -3.177000000    -0.373000000    -6.937000000
H    -2.869000000     0.219000000    -7.795000000
C    -2.540000000    -1.614000000    -6.663000000
H    -1.862000000    -2.048000000    -7.393000000
C    -2.834000000    -2.329000000    -5.517000000
O    -2.056000000    -3.447000000    -5.352000000
C    -0.850000000    -3.443000000    -4.674000000
C    -0.240000000    -4.665000000    -4.313000000
H    -0.826000000    -5.553000000    -4.537000000
C     1.066000000    -4.675000000    -3.944000000
O     1.796000000    -5.875000000    -3.935000000
C     2.542000000    -6.344000000    -2.865000000
C     3.535000000    -7.243000000    -3.211000000
H     3.695000000    -7.675000000    -4.196000000
C     4.307000000    -7.752000000    -2.174000000
H     5.031000000    -8.534000000    -2.390000000
C     4.075000000    -7.383000000    -0.810000000
H     4.560000000    -7.867000000     0.034000000
C     3.050000000    -6.504000000    -0.484000000
C     2.274000000    -6.027000000    -1.511000000
H     1.397000000    -5.407000000    -1.339000000
C    -1.927000000    -1.155000000    -0.750000000
H    -2.631000000    -1.392000000    -1.544000000
C    -0.918000000    -0.267000000    -1.020000000
H    -0.798000000     0.232000000    -1.978000000
C    -0.046000000     0.154000000    -0.042000000
C     0.984000000     1.197000000    -0.299000000
H     0.667000000     2.205000000    -0.022000000
H     1.867000000     1.053000000     0.328000000
H     1.358000000     1.161000000    -1.324000000
C    -0.150000000    -0.316000000     1.243000000
H     0.546000000     0.032000000     2.002000000
C    -1.211000000    -1.184000000     1.557000000
H    -1.302000000    -1.631000000     2.544000000
C    -2.155000000    -1.580000000     0.550000000
C    -3.377000000    -2.318000000     0.891000000
O    -3.593000000    -2.744000000     2.022000000
O    -4.262000000    -2.669000000     0.007000000
O    -4.140000000    -7.616000000     1.734000000
H    -3.590000000    -6.910000000     2.073000000
H    -4.237000000    -8.220000000     2.470000000
O    -1.810000000    -6.058000000    -0.983000000
H    -2.155000000    -6.913000000    -1.240000000
H    -1.738000000    -6.105000000    -0.030000000
O    -5.814000000    -5.235000000    -3.141000000
H    -5.168000000    -5.064000000    -2.456000000
H    -6.272000000    -4.401000000    -3.252000000
O    -4.156000000    -3.161000000     6.789000000
H    -4.516000000    -2.919000000     5.936000000
H    -4.821000000    -2.880000000     7.418000000
O    -5.840000000    -4.370000000     1.377000000
H    -5.707000000    -3.773000000     0.640000000
H    -5.090000000    -4.213000000     1.950000000
O    -6.796000000    -2.211000000    -0.737000000
H    -5.875000000    -2.197000000    -0.476000000
H    -6.777000000    -2.119000000    -1.689000000
O    -6.655000000    -5.556000000     4.657000000
H    -6.734000000    -6.478000000     4.904000000
H    -7.033000000    -5.510000000     3.779000000
O    -7.533000000    -1.060000000     4.209000000
H    -7.661000000    -0.773000000     3.305000000
H    -6.640000000    -1.404000000     4.227000000
O    -5.859000000    -7.322000000    -0.581000000
H    -6.216000000    -8.198000000    -0.434000000
H    -5.533000000    -7.049000000     0.277000000
O   -10.286000000    -1.786000000     2.448000000
H   -10.350000000    -2.741000000     2.469000000
H    -9.520000000    -1.610000000     1.901000000
O    -5.385000000    -2.577000000     4.156000000
H    -4.672000000    -2.369000000     3.552000000
H    -5.546000000    -3.511000000     4.025000000
O    -7.920000000    -0.907000000     1.438000000
H    -7.671000000     0.016000000     1.376000000
H    -7.415000000    -1.338000000     0.749000000
O    -3.958000000    -4.682000000    -1.560000000
H    -3.138000000    -5.037000000    -1.217000000
H    -4.090000000    -3.869000000    -1.072000000
O    -7.673000000    -5.417000000    -0.974000000
H    -7.196000000    -4.695000000    -0.565000000
H    -7.066000000    -6.157000000    -0.937000000
O    -6.990000000    -2.335000000    -3.633000000
H    -7.922000000    -2.266000000    -3.842000000
H    -6.552000000    -1.850000000    -4.332000000
O    -7.797000000    -6.202000000     2.221000000
H    -8.627000000    -5.730000000     2.291000000
H    -7.217000000    -5.599000000     1.756000000
O    -2.405000000    -6.688000000     4.590000000
H    -2.016000000    -6.089000000     3.953000000
H    -1.795000000    -7.425000000     4.628000000
O    -9.604000000    -0.326000000    -1.338000000
H    -9.315000000     0.341000000    -0.716000000
H    -9.170000000    -1.129000000    -1.048000000
O    -2.427000000    -5.208000000     1.906000000
H    -1.939000000    -4.506000000     2.337000000
H    -3.168000000    -4.765000000     1.493000000
