218
-1469.94650
C    -1.950000000     3.459000000     3.600000000
H    -1.876000000     4.519000000     3.371000000
C    -0.871000000     2.579000000     3.665000000
C    -1.095000000     1.269000000     4.100000000
H    -0.271000000     0.560000000     4.058000000
C     0.489000000     2.979000000     3.078000000
O     0.415000000     4.357000000     2.605000000
H     0.622000000     2.364000000     2.176000000
O     1.578000000     2.689000000     3.938000000
C     2.598000000     2.073000000     3.367000000
C     2.736000000     0.719000000     3.681000000
H     2.084000000     0.145000000     4.335000000
C     3.673000000    -0.017000000     3.076000000
O     3.605000000    -1.337000000     3.404000000
C     4.592000000     0.588000000     2.249000000
C     5.524000000    -0.288000000     1.441000000
H     6.431000000     0.235000000     1.132000000
C     4.785000000    -0.815000000     0.202000000
C     4.898000000    -0.140000000    -0.990000000
H     5.501000000     0.753000000    -1.134000000
H     5.907000000    -1.157000000     1.979000000
C     4.493000000     1.968000000     1.931000000
H     5.161000000     2.477000000     1.240000000
C     3.420000000     2.728000000     2.394000000
C     3.295000000     4.248000000     1.986000000
H     4.255000000     4.570000000     1.576000000
H     3.152000000     4.902000000     2.849000000
C     2.156000000     4.348000000     0.848000000
C     2.449000000     4.401000000    -0.517000000
H     3.510000000     4.351000000    -0.746000000
C     0.803000000     4.457000000     1.265000000
C    -0.198000000     4.553000000     0.274000000
H    -1.246000000     4.590000000     0.561000000
C     0.142000000     4.518000000    -1.092000000
O    -0.885000000     4.390000000    -2.012000000
C    -1.039000000     3.105000000    -2.668000000
C    -2.547000000     2.767000000    -2.714000000
C    -3.084000000     2.110000000    -3.831000000
H    -2.509000000     1.826000000    -4.709000000
C    -3.337000000     2.920000000    -1.570000000
H    -2.772000000     3.366000000    -0.756000000
O    -0.484000000     3.090000000    -4.010000000
H    -0.376000000     2.415000000    -2.126000000
C     1.458000000     4.518000000    -1.505000000
C     1.874000000     4.572000000    -3.007000000
H     2.832000000     5.077000000    -3.152000000
H     1.145000000     5.238000000    -3.473000000
C     1.927000000     3.144000000    -3.535000000
C     3.137000000     2.345000000    -3.487000000
H     4.032000000     2.728000000    -3.003000000
C     0.813000000     2.561000000    -4.145000000
C     0.801000000     1.221000000    -4.491000000
H    -0.092000000     0.760000000    -4.904000000
C     1.886000000     0.395000000    -4.320000000
O     1.660000000    -0.970000000    -4.568000000
C     1.372000000    -1.759000000    -3.421000000
C     0.313000000    -2.894000000    -3.713000000
C    -0.891000000    -2.649000000    -4.313000000
H    -0.950000000    -1.632000000    -4.690000000
C     0.497000000    -4.160000000    -3.064000000
H     1.316000000    -4.308000000    -2.365000000
O     2.685000000    -2.255000000    -3.033000000
H     1.014000000    -1.045000000    -2.665000000
C     3.141000000     0.964000000    -3.825000000
C     4.306000000     0.068000000    -3.470000000
H     5.253000000     0.601000000    -3.583000000
H     4.300000000    -0.797000000    -4.136000000
C     4.182000000    -0.648000000    -2.089000000
C     3.378000000    -1.779000000    -1.966000000
C     3.352000000    -2.520000000    -0.800000000
H     2.746000000    -3.416000000    -0.695000000
C     4.075000000    -2.004000000     0.308000000
O     3.816000000    -2.617000000     1.544000000
C     2.853000000    -2.108000000     2.469000000
H     2.143000000    -1.407000000     2.006000000
C     2.023000000    -3.198000000     3.129000000
C     1.650000000    -3.182000000     4.447000000
H     2.026000000    -2.420000000     5.125000000
C     1.593000000    -4.211000000     2.293000000
H     1.872000000    -4.218000000     1.242000000
C     0.841000000    -5.318000000     2.862000000
O     0.552000000    -6.452000000     2.129000000
C     0.515000000    -5.282000000     4.214000000
H    -0.043000000    -6.080000000     4.697000000
C     0.795000000    -4.157000000     4.966000000
O     0.234000000    -4.020000000     6.251000000
C    -0.343000000    -2.820000000     6.555000000
C    -1.255000000    -2.229000000     5.702000000
H    -1.514000000    -2.659000000     4.738000000
C    -0.099000000    -2.272000000     7.805000000
H     0.517000000    -2.762000000     8.556000000
C    -0.829000000    -1.169000000     8.189000000
H    -0.622000000    -0.711000000     9.153000000
C    -1.614000000    -0.430000000     7.205000000
H    -1.970000000     0.579000000     7.399000000
C    -1.780000000    -0.954000000     5.992000000
O    -2.584000000    -0.405000000     5.048000000
C    -2.330000000     0.912000000     4.627000000
C    -3.388000000     1.824000000     4.576000000
H    -4.435000000     1.581000000     4.740000000
C    -3.191000000     3.116000000     4.155000000
O    -4.355000000     3.877000000     3.927000000
C    -4.741000000     4.231000000     2.673000000
C    -4.844000000     3.332000000     1.643000000
H    -4.604000000     2.307000000     1.915000000
C    -5.095000000     5.568000000     2.507000000
H    -4.921000000     6.302000000     3.290000000
C    -5.628000000     5.998000000     1.296000000
H    -5.817000000     7.043000000     1.065000000
C    -5.759000000     5.095000000     0.241000000
H    -6.178000000     5.426000000    -0.706000000
C    -5.396000000     3.732000000     0.410000000
O    -5.608000000     2.857000000    -0.543000000
C    -4.712000000     2.605000000    -1.559000000
C    -5.254000000     2.110000000    -2.796000000
H    -6.326000000     2.005000000    -2.939000000
C    -4.447000000     1.793000000    -3.857000000
O    -5.022000000     1.183000000    -4.950000000
C    -4.427000000     0.096000000    -5.589000000
C    -4.154000000    -1.151000000    -4.933000000
H    -4.362000000    -1.390000000    -3.893000000
C    -3.988000000     0.375000000    -6.922000000
H    -4.164000000     1.348000000    -7.375000000
C    -3.384000000    -0.649000000    -7.607000000
H    -2.988000000    -0.471000000    -8.604000000
C    -3.039000000    -1.879000000    -6.933000000
H    -2.578000000    -2.688000000    -7.494000000
C    -3.388000000    -2.101000000    -5.622000000
O    -3.128000000    -3.260000000    -5.007000000
C    -1.891000000    -3.611000000    -4.448000000
C    -1.665000000    -4.833000000    -3.944000000
H    -2.503000000    -5.518000000    -4.048000000
C    -0.521000000    -5.105000000    -3.247000000
O    -0.453000000    -6.364000000    -2.512000000
C     0.349000000    -6.718000000    -1.500000000
C     1.578000000    -7.285000000    -1.828000000
H     1.826000000    -7.471000000    -2.869000000
C     2.556000000    -7.388000000    -0.842000000
H     3.496000000    -7.876000000    -1.088000000
C     2.174000000    -7.088000000     0.475000000
H     2.911000000    -7.196000000     1.267000000
C     0.872000000    -6.721000000     0.842000000
C    -0.050000000    -6.425000000    -0.173000000
H    -1.034000000    -6.009000000     0.027000000
C    -2.026000000    -2.580000000    -0.572000000
H    -2.538000000    -2.866000000    -1.487000000
C    -1.391000000    -1.336000000    -0.604000000
H    -1.428000000    -0.751000000    -1.519000000
C    -0.661000000    -0.913000000     0.522000000
C     0.248000000     0.311000000     0.447000000
H    -0.280000000     1.214000000     0.759000000
H     1.116000000     0.215000000     1.103000000
H     0.599000000     0.621000000    -0.540000000
C    -0.646000000    -1.640000000     1.736000000
H    -0.191000000    -1.318000000     2.669000000
C    -1.368000000    -2.854000000     1.782000000
H    -1.413000000    -3.425000000     2.705000000
C    -2.129000000    -3.287000000     0.652000000
C    -3.042000000    -4.540000000     0.763000000
O    -3.133000000    -5.193000000     1.768000000
O    -3.775000000    -4.868000000    -0.216000000
O    -8.525000000    -1.967000000     0.650000000
H    -7.607000000    -1.724000000     0.768000000
H    -8.576000000    -2.870000000     0.965000000
O    -2.652000000    -9.803000000     0.179000000
H    -1.730000000    -9.894000000     0.419000000
H    -2.635000000    -9.536000000    -0.740000000
O    -7.969000000    -3.713000000    -2.160000000
H    -7.934000000    -4.667000000    -2.083000000
H    -7.061000000    -3.430000000    -2.052000000
O    -3.024000000    -9.979000000     2.914000000
H    -3.373000000   -10.389000000     2.123000000
H    -2.617000000    -9.169000000     2.605000000
O    -4.118000000    -6.807000000    -1.951000000
H    -4.590000000    -7.397000000    -1.363000000
H    -3.942000000    -6.030000000    -1.421000000
O    -7.840000000    -6.580000000    -1.794000000
H    -7.625000000    -7.429000000    -2.180000000
H    -7.388000000    -6.578000000    -0.951000000
O    -3.846000000    -4.869000000     4.351000000
H    -4.780000000    -5.008000000     4.192000000
H    -3.436000000    -4.994000000     3.495000000
O    -4.956000000    -3.606000000    -2.126000000
H    -4.396000000    -4.010000000    -1.463000000
H    -4.961000000    -4.232000000    -2.850000000
O    -4.213000000    -3.564000000     6.857000000
H    -3.771000000    -3.982000000     6.118000000
H    -4.874000000    -3.002000000     6.455000000
O    -5.897000000    -5.776000000    -3.890000000
H    -5.404000000    -6.219000000    -3.199000000
H    -6.800000000    -5.768000000    -3.572000000
O    -6.092000000    -3.997000000     2.723000000
H    -6.259000000    -4.468000000     1.907000000
H    -5.542000000    -3.257000000     2.465000000
O    -3.410000000    -0.176000000     1.308000000
H    -3.531000000    -0.171000000     2.258000000
H    -2.554000000    -0.583000000     1.178000000
O    -5.577000000    -1.811000000     0.238000000
H    -4.825000000    -1.236000000     0.378000000
H    -5.323000000    -2.362000000    -0.502000000
O    -5.153000000    -8.648000000     0.029000000
H    -5.694000000    -9.372000000    -0.286000000
H    -4.255000000    -8.974000000    -0.034000000
O    -6.041000000    -6.121000000     0.886000000
H    -5.248000000    -5.638000000     0.651000000
H    -5.789000000    -7.042000000     0.816000000
O    -2.140000000    -8.769000000    -2.301000000
H    -1.422000000    -8.319000000    -2.747000000
H    -2.799000000    -8.088000000    -2.163000000
O    -8.073000000    -3.934000000     4.369000000
H    -7.885000000    -4.757000000     4.820000000
H    -7.384000000    -3.860000000     3.709000000
O    -2.336000000    -7.212000000     5.782000000
H    -2.620000000    -6.509000000     5.197000000
H    -2.394000000    -6.833000000     6.658000000
O    -1.939000000    -7.526000000     2.401000000
H    -1.033000000    -7.280000000     2.214000000
H    -2.457000000    -6.782000000     2.091000000
