218
-1464.26857
C    -2.699000000     2.566000000     3.926000000
H    -3.022000000     3.475000000     3.425000000
C    -1.342000000     2.266000000     4.036000000
C    -0.952000000     1.160000000     4.742000000
H     0.104000000     0.929000000     4.859000000
C    -0.296000000     2.877000000     3.109000000
O    -0.705000000     4.170000000     2.718000000
H    -0.340000000     2.239000000     2.214000000
O     0.951000000     2.858000000     3.725000000
C     2.161000000     2.639000000     3.079000000
C     2.716000000     1.357000000     3.221000000
H     2.192000000     0.715000000     3.925000000
C     3.805000000     1.032000000     2.387000000
O     4.314000000    -0.211000000     2.613000000
C     4.302000000     1.891000000     1.451000000
C     5.375000000     1.446000000     0.475000000
H     5.886000000     2.328000000     0.084000000
C     4.856000000     0.591000000    -0.666000000
C     4.574000000     1.157000000    -1.871000000
H     4.621000000     2.241000000    -1.919000000
H     6.172000000     0.934000000     1.019000000
C     3.650000000     3.091000000     1.220000000
H     4.104000000     3.717000000     0.456000000
C     2.570000000     3.465000000     2.008000000
C     1.937000000     4.783000000     1.773000000
H     2.542000000     5.525000000     1.248000000
H     1.585000000     5.195000000     2.720000000
C     0.711000000     4.673000000     0.857000000
C     0.792000000     5.001000000    -0.502000000
H     1.771000000     5.061000000    -0.970000000
C    -0.548000000     4.459000000     1.393000000
C    -1.684000000     4.402000000     0.619000000
H    -2.565000000     4.081000000     1.169000000
C    -1.533000000     4.434000000    -0.826000000
O    -2.603000000     4.027000000    -1.602000000
C    -2.543000000     2.647000000    -2.087000000
C    -3.870000000     1.897000000    -1.963000000
C    -4.049000000     0.777000000    -2.729000000
H    -3.391000000     0.434000000    -3.523000000
C    -4.836000000     2.282000000    -1.035000000
H    -4.783000000     3.303000000    -0.666000000
O    -2.032000000     2.714000000    -3.457000000
H    -1.746000000     2.063000000    -1.605000000
C    -0.259000000     4.805000000    -1.353000000
C     0.015000000     4.882000000    -2.825000000
H     0.856000000     5.556000000    -2.999000000
H    -0.812000000     5.341000000    -3.370000000
C     0.253000000     3.437000000    -3.356000000
C     1.614000000     3.082000000    -3.516000000
H     2.386000000     3.761000000    -3.162000000
C    -0.712000000     2.489000000    -3.702000000
C    -0.426000000     1.243000000    -4.137000000
H    -1.187000000     0.500000000    -4.359000000
C     0.938000000     0.943000000    -4.351000000
O     1.226000000    -0.352000000    -4.731000000
C     1.444000000    -1.239000000    -3.650000000
C     0.675000000    -2.539000000    -3.817000000
C    -0.442000000    -2.631000000    -4.590000000
H    -0.828000000    -1.807000000    -5.184000000
C     1.144000000    -3.606000000    -3.209000000
H     2.087000000    -3.598000000    -2.669000000
O     2.867000000    -1.535000000    -3.632000000
H     1.056000000    -0.809000000    -2.716000000
C     1.915000000     1.781000000    -3.941000000
C     3.412000000     1.377000000    -4.020000000
H     3.952000000     2.323000000    -3.954000000
H     3.708000000     0.803000000    -4.901000000
C     3.918000000     0.544000000    -2.893000000
C     3.576000000    -0.817000000    -2.710000000
C     3.954000000    -1.436000000    -1.518000000
H     3.746000000    -2.501000000    -1.458000000
C     4.594000000    -0.739000000    -0.489000000
O     4.866000000    -1.396000000     0.699000000
C     3.907000000    -1.247000000     1.657000000
H     2.997000000    -0.940000000     1.120000000
C     3.497000000    -2.557000000     2.351000000
C     3.031000000    -2.632000000     3.702000000
H     2.999000000    -1.727000000     4.303000000
C     3.584000000    -3.747000000     1.630000000
H     3.856000000    -3.756000000     0.578000000
C     3.246000000    -5.019000000     2.209000000
O     3.327000000    -6.231000000     1.513000000
C     2.734000000    -4.984000000     3.515000000
H     2.327000000    -5.864000000     4.008000000
C     2.644000000    -3.872000000     4.315000000
O     2.216000000    -3.977000000     5.613000000
C     1.655000000    -2.847000000     6.245000000
C     0.369000000    -2.358000000     5.918000000
H    -0.224000000    -2.961000000     5.235000000
C     2.445000000    -2.115000000     7.122000000
H     3.453000000    -2.388000000     7.424000000
C     1.941000000    -0.998000000     7.748000000
H     2.525000000    -0.450000000     8.483000000
C     0.655000000    -0.551000000     7.454000000
H     0.229000000     0.291000000     7.993000000
C    -0.108000000    -1.180000000     6.413000000
O    -1.446000000    -0.793000000     6.179000000
C    -1.846000000     0.406000000     5.486000000
C    -3.192000000     0.721000000     5.343000000
H    -3.986000000     0.140000000     5.806000000
C    -3.615000000     1.691000000     4.460000000
O    -4.956000000     1.925000000     4.312000000
C    -5.486000000     2.618000000     3.315000000
C    -5.967000000     1.916000000     2.192000000
H    -5.777000000     0.847000000     2.140000000
C    -5.677000000     3.966000000     3.494000000
H    -5.285000000     4.520000000     4.344000000
C    -6.381000000     4.638000000     2.457000000
H    -6.503000000     5.688000000     2.709000000
C    -6.853000000     3.972000000     1.285000000
H    -7.253000000     4.561000000     0.464000000
C    -6.657000000     2.620000000     1.195000000
O    -7.012000000     2.006000000     0.022000000
C    -6.072000000     1.616000000    -0.940000000
C    -6.279000000     0.501000000    -1.676000000
H    -7.119000000    -0.158000000    -1.470000000
C    -5.252000000     0.060000000    -2.531000000
O    -5.427000000    -1.187000000    -3.154000000
C    -4.758000000    -1.620000000    -4.303000000
C    -3.738000000    -2.558000000    -4.312000000
H    -3.339000000    -3.025000000    -3.415000000
C    -5.202000000    -1.067000000    -5.499000000
H    -6.048000000    -0.386000000    -5.548000000
C    -4.516000000    -1.367000000    -6.644000000
H    -4.753000000    -0.888000000    -7.591000000
C    -3.544000000    -2.383000000    -6.681000000
H    -3.169000000    -2.660000000    -7.662000000
C    -3.139000000    -2.945000000    -5.479000000
O    -2.225000000    -4.014000000    -5.461000000
C    -1.092000000    -3.877000000    -4.672000000
C    -0.634000000    -4.981000000    -3.984000000
H    -1.086000000    -5.957000000    -4.144000000
C     0.505000000    -4.850000000    -3.277000000
O     0.950000000    -5.930000000    -2.600000000
C     2.155000000    -6.095000000    -1.937000000
C     3.291000000    -6.684000000    -2.598000000
H     3.303000000    -6.800000000    -3.679000000
C     4.348000000    -7.124000000    -1.871000000
H     5.169000000    -7.590000000    -2.409000000
C     4.407000000    -6.905000000    -0.463000000
H     5.208000000    -7.310000000     0.150000000
C     3.347000000    -6.313000000     0.174000000
C     2.213000000    -5.931000000    -0.580000000
H     1.382000000    -5.431000000    -0.090000000
C    -2.652000000    -1.861000000    -0.442000000
H    -3.283000000    -2.434000000    -1.116000000
C    -1.746000000    -0.832000000    -0.792000000
H    -1.621000000    -0.583000000    -1.843000000
C    -0.933000000    -0.297000000     0.179000000
C     0.080000000     0.728000000    -0.192000000
H     0.402000000     0.772000000    -1.235000000
H    -0.242000000     1.696000000     0.198000000
H     0.965000000     0.385000000     0.349000000
C    -1.214000000    -0.562000000     1.514000000
H    -0.665000000    -0.093000000     2.327000000
C    -2.219000000    -1.457000000     1.872000000
H    -2.615000000    -1.545000000     2.881000000
C    -2.915000000    -2.188000000     0.874000000
C    -3.844000000    -3.306000000     1.295000000
O    -4.118000000    -3.389000000     2.495000000
O    -4.248000000    -4.260000000     0.584000000
O    -9.844000000    -3.108000000    -1.185000000
H    -9.030000000    -3.093000000    -1.690000000
H   -10.411000000    -3.712000000    -1.664000000
O    -5.729000000    -7.643000000     0.255000000
H    -6.331000000    -8.180000000     0.771000000
H    -5.477000000    -6.933000000     0.846000000
O    -3.096000000    -7.046000000    -2.005000000
H    -3.853000000    -7.448000000    -1.578000000
H    -2.659000000    -7.772000000    -2.450000000
O    -0.382000000    -5.844000000     4.881000000
H    -1.013000000    -5.551000000     4.223000000
H    -0.800000000    -5.642000000     5.719000000
O    -2.147000000    -5.145000000     3.077000000
H    -2.139000000    -5.176000000     2.120000000
H    -2.900000000    -4.594000000     3.292000000
O    -8.574000000    -0.897000000     2.528000000
H    -8.189000000    -0.458000000     3.287000000
H    -9.389000000    -1.275000000     2.857000000
O    -7.375000000    -3.062000000    -2.519000000
H    -6.839000000    -3.809000000    -2.252000000
H    -6.742000000    -2.375000000    -2.728000000
O    -5.419000000    -2.236000000     4.326000000
H    -5.817000000    -2.976000000     4.784000000
H    -4.924000000    -2.635000000     3.610000000
O    -2.273000000    -5.884000000     0.256000000
H    -2.959000000    -5.216000000     0.291000000
H    -2.369000000    -6.281000000    -0.609000000
O    -7.570000000    -5.654000000     4.304000000
H    -7.599000000    -5.103000000     5.086000000
H    -6.736000000    -5.437000000     3.888000000
O    -7.577000000    -7.881000000    -1.877000000
H    -6.804000000    -7.737000000    -1.330000000
H    -8.315000000    -7.803000000    -1.273000000
O    -9.236000000    -5.359000000     1.953000000
H    -8.964000000    -5.652000000     2.823000000
H    -8.444000000    -4.984000000     1.568000000
O    -7.508000000    -0.236000000     5.097000000
H    -6.780000000    -0.758000000     4.756000000
H    -7.972000000    -0.830000000     5.686000000
O    -5.046000000    -5.357000000    -4.719000000
H    -4.477000000    -4.770000000    -5.217000000
H    -4.866000000    -5.147000000    -3.803000000
O    -4.853000000    -4.877000000    -2.031000000
H    -4.179000000    -5.553000000    -2.099000000
H    -4.677000000    -4.448000000    -1.193000000
O    -2.646000000    -8.905000000     2.421000000
H    -1.727000000    -9.059000000     2.639000000
H    -2.620000000    -8.243000000     1.730000000
O    -9.433000000    -0.208000000    -0.133000000
H    -9.557000000    -1.088000000    -0.487000000
H    -9.025000000    -0.348000000     0.722000000
O    -5.149000000    -6.056000000     2.758000000
H    -4.915000000    -5.132000000     2.666000000
H    -4.340000000    -6.480000000     3.047000000
O    -7.010000000    -4.651000000     0.554000000
H    -6.977000000    -3.706000000     0.410000000
H    -6.092000000    -4.918000000     0.606000000
