218
-1479.83223
C    -1.758000000     1.694000000     4.408000000
H    -2.195000000     2.675000000     4.241000000
C    -0.469000000     1.336000000     4.154000000
C    -0.054000000     0.039000000     4.537000000
H     0.929000000    -0.379000000     4.335000000
C     0.433000000     2.250000000     3.364000000
O    -0.057000000     3.565000000     3.273000000
H     0.501000000     1.817000000     2.355000000
O     1.793000000     2.223000000     3.846000000
C     2.733000000     2.123000000     2.857000000
C     3.427000000     0.906000000     2.791000000
H     3.229000000     0.107000000     3.501000000
C     4.297000000     0.707000000     1.700000000
O     4.857000000    -0.567000000     1.603000000
C     4.456000000     1.649000000     0.689000000
C     5.379000000     1.409000000    -0.529000000
H     5.846000000     2.353000000    -0.817000000
C     4.635000000     0.763000000    -1.697000000
C     4.141000000     1.546000000    -2.683000000
H     4.199000000     2.631000000    -2.641000000
H     6.270000000     0.813000000    -0.322000000
C     3.729000000     2.825000000     0.791000000
H     3.869000000     3.590000000     0.032000000
C     2.921000000     3.109000000     1.926000000
C     2.420000000     4.543000000     2.073000000
H     3.154000000     5.195000000     1.595000000
H     2.307000000     4.857000000     3.112000000
C     1.091000000     4.651000000     1.345000000
C     0.979000000     4.948000000     0.034000000
H     1.897000000     5.310000000    -0.421000000
C    -0.084000000     4.269000000     2.035000000
C    -1.277000000     4.118000000     1.345000000
H    -2.081000000     3.606000000     1.868000000
C    -1.447000000     4.563000000     0.013000000
O    -2.617000000     4.448000000    -0.629000000
C    -2.855000000     3.231000000    -1.294000000
C    -4.199000000     2.586000000    -1.052000000
C    -4.605000000     1.514000000    -1.893000000
H    -4.071000000     1.543000000    -2.839000000
C    -4.852000000     2.822000000     0.185000000
H    -4.582000000     3.610000000     0.883000000
O    -2.552000000     3.284000000    -2.754000000
H    -2.120000000     2.516000000    -0.896000000
C    -0.262000000     4.937000000    -0.644000000
C    -0.301000000     5.139000000    -2.188000000
H     0.513000000     5.792000000    -2.509000000
H    -1.154000000     5.680000000    -2.602000000
C    -0.181000000     3.831000000    -2.928000000
C     1.062000000     3.453000000    -3.447000000
H     1.955000000     4.018000000    -3.192000000
C    -1.260000000     2.967000000    -3.173000000
C    -1.094000000     1.798000000    -3.972000000
H    -1.922000000     1.140000000    -4.224000000
C     0.118000000     1.497000000    -4.448000000
O     0.242000000     0.202000000    -4.992000000
C     0.693000000    -0.898000000    -4.097000000
C    -0.068000000    -2.149000000    -4.187000000
C    -1.371000000    -2.060000000    -4.638000000
H    -1.764000000    -1.171000000    -5.125000000
C     0.498000000    -3.289000000    -3.714000000
H     1.524000000    -3.270000000    -3.356000000
O     2.129000000    -1.120000000    -4.292000000
H     0.591000000    -0.617000000    -3.038000000
C     1.252000000     2.287000000    -4.215000000
C     2.632000000     1.908000000    -4.594000000
H     3.329000000     2.740000000    -4.715000000
H     2.561000000     1.408000000    -5.562000000
C     3.318000000     0.955000000    -3.634000000
C     3.236000000    -0.495000000    -3.713000000
C     3.926000000    -1.317000000    -2.765000000
H     3.695000000    -2.378000000    -2.702000000
C     4.534000000    -0.658000000    -1.679000000
O     5.003000000    -1.453000000    -0.628000000
C     4.179000000    -1.448000000     0.699000000
H     3.166000000    -1.069000000     0.497000000
C     4.037000000    -2.861000000     1.256000000
C     3.878000000    -3.022000000     2.685000000
H     3.936000000    -2.157000000     3.340000000
C     3.817000000    -3.917000000     0.457000000
H     3.900000000    -3.837000000    -0.624000000
C     3.616000000    -5.196000000     1.011000000
O     3.581000000    -6.309000000     0.199000000
C     3.609000000    -5.386000000     2.409000000
H     3.437000000    -6.377000000     2.821000000
C     3.632000000    -4.254000000     3.227000000
O     3.523000000    -4.471000000     4.604000000
C     2.835000000    -3.586000000     5.406000000
C     1.479000000    -3.325000000     5.179000000
H     1.029000000    -3.675000000     4.254000000
C     3.481000000    -2.912000000     6.420000000
H     4.532000000    -3.120000000     6.605000000
C     2.804000000    -2.036000000     7.191000000
H     3.354000000    -1.414000000     7.891000000
C     1.437000000    -1.800000000     7.031000000
H     0.955000000    -0.996000000     7.580000000
C     0.746000000    -2.440000000     5.974000000
O    -0.525000000    -2.104000000     5.618000000
C    -0.888000000    -0.838000000     5.201000000
C    -2.156000000    -0.363000000     5.573000000
H    -2.676000000    -1.130000000     6.141000000
C    -2.579000000     0.891000000     5.243000000
O    -3.889000000     1.360000000     5.565000000
C    -4.558000000     2.218000000     4.768000000
C    -5.030000000     1.806000000     3.494000000
H    -4.753000000     0.817000000     3.138000000
C    -5.112000000     3.293000000     5.366000000
H    -4.864000000     3.525000000     6.398000000
C    -5.964000000     4.114000000     4.685000000
H    -6.322000000     5.026000000     5.156000000
C    -6.446000000     3.708000000     3.450000000
H    -7.235000000     4.280000000     2.968000000
C    -6.049000000     2.491000000     2.895000000
O    -6.593000000     2.101000000     1.691000000
C    -5.885000000     2.002000000     0.516000000
C    -6.353000000     0.996000000    -0.333000000
H    -7.143000000     0.332000000     0.006000000
C    -5.712000000     0.696000000    -1.580000000
O    -6.212000000    -0.354000000    -2.283000000
C    -5.666000000    -0.765000000    -3.481000000
C    -4.705000000    -1.741000000    -3.527000000
H    -4.370000000    -2.337000000    -2.681000000
C    -6.128000000    -0.060000000    -4.620000000
H    -6.846000000     0.754000000    -4.560000000
C    -5.742000000    -0.480000000    -5.896000000
H    -6.112000000     0.010000000    -6.793000000
C    -4.778000000    -1.506000000    -6.006000000
H    -4.380000000    -1.852000000    -6.956000000
C    -4.255000000    -2.061000000    -4.854000000
O    -3.412000000    -3.102000000    -5.109000000
C    -2.147000000    -3.182000000    -4.610000000
C    -1.623000000    -4.394000000    -4.101000000
H    -2.265000000    -5.254000000    -3.930000000
C    -0.353000000    -4.397000000    -3.596000000
O     0.026000000    -5.529000000    -2.960000000
C     1.351000000    -5.797000000    -2.631000000
C     2.148000000    -6.179000000    -3.676000000
H     1.821000000    -6.162000000    -4.713000000
C     3.433000000    -6.682000000    -3.421000000
H     4.019000000    -7.125000000    -4.221000000
C     3.860000000    -6.773000000    -2.112000000
H     4.825000000    -7.216000000    -1.878000000
C     3.115000000    -6.211000000    -1.104000000
C     1.847000000    -5.651000000    -1.322000000
H     1.336000000    -5.185000000    -0.483000000
C    -1.328000000    -2.284000000    -0.723000000
H    -2.129000000    -2.726000000    -1.312000000
C    -0.812000000    -1.019000000    -1.059000000
H    -1.222000000    -0.480000000    -1.909000000
C     0.082000000    -0.385000000    -0.307000000
C     0.504000000     1.037000000    -0.641000000
H    -0.345000000     1.666000000    -0.918000000
H     1.028000000     1.515000000     0.190000000
H     1.109000000     1.055000000    -1.549000000
C     0.503000000    -0.909000000     0.934000000
H     1.030000000    -0.295000000     1.659000000
C     0.167000000    -2.260000000     1.197000000
H     0.542000000    -2.708000000     2.114000000
C    -0.815000000    -2.892000000     0.456000000
C    -1.288000000    -4.285000000     0.793000000
O    -0.818000000    -4.814000000     1.761000000
O    -2.321000000    -4.779000000     0.361000000
O    -4.690000000    -3.139000000     1.541000000
H    -4.541000000    -4.076000000     1.419000000
H    -3.830000000    -2.788000000     1.771000000
O    -5.134000000    -6.487000000     1.078000000
H    -5.707000000    -6.824000000     0.389000000
H    -5.663000000    -6.533000000     1.874000000
O     1.306000000    -7.011000000     4.270000000
H     1.624000000    -6.207000000     4.681000000
H     1.292000000    -6.813000000     3.334000000
O     0.943000000    -6.734000000     1.713000000
H     0.594000000    -7.197000000     0.952000000
H     0.239000000    -6.141000000     1.976000000
O    -6.891000000    -1.600000000     2.358000000
H    -7.322000000    -1.801000000     1.528000000
H    -5.969000000    -1.482000000     2.127000000
O    -6.391000000    -4.633000000    -1.172000000
H    -6.001000000    -4.849000000    -0.324000000
H    -5.666000000    -4.701000000    -1.793000000
O    -2.190000000    -9.980000000     2.047000000
H    -3.035000000   -10.405000000     2.196000000
H    -2.356000000    -9.052000000     2.211000000
O    -2.710000000    -1.898000000     3.008000000
H    -1.993000000    -2.474000000     3.274000000
H    -3.350000000    -1.972000000     3.716000000
O    -1.145000000    -7.347000000    -0.406000000
H    -1.723000000    -6.865000000     0.185000000
H    -1.438000000    -7.098000000    -1.283000000
O    -5.718000000    -6.810000000     4.289000000
H    -5.770000000    -5.873000000     4.097000000
H    -6.449000000    -6.974000000     4.885000000
O    -4.047000000    -8.276000000    -2.262000000
H    -4.619000000    -8.872000000    -1.778000000
H    -3.193000000    -8.709000000    -2.260000000
O    -6.202000000    -4.053000000     3.782000000
H    -5.442000000    -3.563000000     4.097000000
H    -6.584000000    -3.494000000     3.105000000
O    -1.415000000    -7.741000000     4.444000000
H    -0.619000000    -7.209000000     4.437000000
H    -1.963000000    -7.361000000     3.757000000
O    -3.805000000    -5.462000000    -1.772000000
H    -3.663000000    -6.386000000    -1.980000000
H    -3.322000000    -5.323000000    -0.957000000
O    -0.120000000    -9.934000000    -0.022000000
H    -0.285000000   -10.027000000     0.916000000
H    -0.431000000    -9.054000000    -0.234000000
O    -1.617000000    -4.538000000     4.126000000
H    -0.977000000    -4.967000000     4.695000000
H    -1.289000000    -4.691000000     3.240000000
O    -3.155000000    -3.655000000     6.361000000
H    -2.615000000    -3.782000000     5.581000000
H    -3.381000000    -4.541000000     6.643000000
O    -2.610000000    -6.944000000     2.125000000
H    -2.281000000    -6.107000000     1.798000000
H    -3.485000000    -7.022000000     1.743000000
O    -2.382000000     0.259000000     1.290000000
H    -2.174000000    -0.217000000     0.487000000
H    -2.549000000    -0.426000000     1.938000000
