218
-1450.61005
C    -1.683000000     2.616000000     3.654000000
H    -2.121000000     2.995000000     2.734000000
C    -0.270000000     2.562000000     3.754000000
C     0.227000000     1.663000000     4.712000000
H     1.301000000     1.498000000     4.743000000
C     0.583000000     3.168000000     2.654000000
O    -0.037000000     4.422000000     2.193000000
H     0.563000000     2.379000000     1.887000000
O     1.974000000     3.283000000     3.053000000
C     2.944000000     2.851000000     2.193000000
C     3.534000000     1.593000000     2.460000000
H     3.300000000     1.066000000     3.381000000
C     4.429000000     1.048000000     1.545000000
O     4.928000000    -0.197000000     1.809000000
C     4.628000000     1.752000000     0.344000000
C     5.511000000     1.017000000    -0.701000000
H     6.059000000     1.814000000    -1.209000000
C     4.787000000     0.107000000    -1.624000000
C     4.158000000     0.626000000    -2.752000000
H     4.356000000     1.663000000    -3.010000000
H     6.321000000     0.506000000    -0.177000000
C     4.122000000     3.041000000     0.155000000
H     4.440000000     3.662000000    -0.679000000
C     3.217000000     3.567000000     1.050000000
C     2.459000000     4.924000000     0.886000000
H     3.113000000     5.591000000     0.321000000
H     2.307000000     5.393000000     1.861000000
C     1.121000000     4.835000000     0.156000000
C     1.025000000     4.633000000    -1.276000000
H     1.970000000     4.418000000    -1.769000000
C    -0.062000000     4.652000000     0.845000000
C    -1.307000000     4.432000000     0.145000000
H    -2.214000000     4.096000000     0.641000000
C    -1.368000000     4.476000000    -1.241000000
O    -2.594000000     4.084000000    -1.763000000
C    -2.755000000     2.654000000    -2.118000000
C    -4.151000000     2.094000000    -1.736000000
C    -4.675000000     0.995000000    -2.393000000
H    -4.029000000     0.614000000    -3.179000000
C    -4.839000000     2.582000000    -0.602000000
H    -4.479000000     3.436000000    -0.034000000
O    -2.456000000     2.487000000    -3.443000000
H    -2.011000000     2.096000000    -1.530000000
C    -0.177000000     4.540000000    -1.940000000
C    -0.206000000     4.437000000    -3.480000000
H     0.492000000     5.113000000    -3.978000000
H    -1.222000000     4.768000000    -3.704000000
C    -0.066000000     2.993000000    -3.940000000
C     1.209000000     2.530000000    -4.183000000
H     2.069000000     3.188000000    -4.283000000
C    -1.178000000     2.119000000    -3.899000000
C    -1.068000000     0.796000000    -4.184000000
H    -1.842000000     0.043000000    -4.056000000
C     0.205000000     0.299000000    -4.441000000
O     0.260000000    -1.043000000    -4.654000000
C     0.718000000    -1.881000000    -3.550000000
C    -0.147000000    -3.110000000    -3.377000000
C    -1.408000000    -3.189000000    -4.051000000
H    -1.545000000    -2.678000000    -5.001000000
C     0.125000000    -4.004000000    -2.439000000
H     1.100000000    -3.937000000    -1.964000000
O     2.140000000    -2.213000000    -3.694000000
H     0.682000000    -1.279000000    -2.630000000
C     1.336000000     1.119000000    -4.499000000
C     2.741000000     0.523000000    -4.728000000
H     3.381000000     1.323000000    -5.106000000
H     2.758000000    -0.176000000    -5.567000000
C     3.340000000    -0.164000000    -3.506000000
C     3.110000000    -1.490000000    -3.103000000
C     3.731000000    -2.021000000    -2.019000000
H     3.489000000    -3.034000000    -1.706000000
C     4.567000000    -1.201000000    -1.250000000
O     5.078000000    -1.727000000    -0.046000000
C     4.348000000    -1.302000000     1.141000000
H     3.376000000    -0.948000000     0.768000000
C     4.049000000    -2.521000000     2.078000000
C     3.805000000    -2.347000000     3.388000000
H     4.044000000    -1.397000000     3.858000000
C     4.014000000    -3.809000000     1.587000000
H     4.147000000    -4.083000000     0.543000000
C     3.496000000    -4.839000000     2.379000000
O     3.283000000    -6.089000000     1.817000000
C     3.165000000    -4.609000000     3.692000000
H     2.711000000    -5.354000000     4.339000000
C     3.349000000    -3.347000000     4.210000000
O     3.112000000    -3.161000000     5.577000000
C     2.829000000    -1.996000000     6.190000000
C     1.492000000    -1.528000000     6.286000000
H     0.646000000    -2.150000000     6.005000000
C     3.913000000    -1.278000000     6.697000000
H     4.951000000    -1.600000000     6.679000000
C     3.662000000     0.105000000     7.070000000
H     4.501000000     0.735000000     7.355000000
C     2.337000000     0.666000000     7.014000000
H     2.180000000     1.732000000     7.155000000
C     1.238000000    -0.231000000     6.778000000
O    -0.065000000     0.276000000     6.684000000
C    -0.567000000     1.041000000     5.657000000
C    -1.943000000     1.205000000     5.600000000
H    -2.594000000     0.700000000     6.309000000
C    -2.522000000     1.848000000     4.520000000
O    -3.850000000     1.838000000     4.488000000
C    -4.691000000     2.748000000     3.815000000
C    -5.329000000     2.235000000     2.693000000
H    -5.260000000     1.185000000     2.419000000
C    -4.867000000     4.107000000     4.129000000
H    -4.170000000     4.433000000     4.897000000
C    -5.746000000     4.888000000     3.412000000
H    -5.849000000     5.922000000     3.730000000
C    -6.415000000     4.381000000     2.263000000
H    -7.048000000     4.993000000     1.625000000
C    -6.100000000     3.114000000     1.817000000
O    -6.804000000     2.621000000     0.802000000
C    -6.122000000     2.100000000    -0.276000000
C    -6.665000000     1.075000000    -1.044000000
H    -7.591000000     0.576000000    -0.766000000
C    -5.964000000     0.465000000    -2.084000000
O    -6.343000000    -0.641000000    -2.788000000
C    -5.687000000    -1.404000000    -3.758000000
C    -5.086000000    -2.532000000    -3.381000000
H    -5.103000000    -2.888000000    -2.354000000
C    -5.853000000    -0.985000000    -5.155000000
H    -6.294000000    -0.004000000    -5.312000000
C    -5.308000000    -1.806000000    -6.111000000
H    -5.564000000    -1.571000000    -7.141000000
C    -4.596000000    -3.000000000    -5.777000000
H    -4.163000000    -3.567000000    -6.597000000
C    -4.354000000    -3.230000000    -4.396000000
O    -3.615000000    -4.305000000    -4.146000000
C    -2.376000000    -4.093000000    -3.572000000
C    -2.082000000    -4.960000000    -2.537000000
H    -2.787000000    -5.735000000    -2.246000000
C    -0.794000000    -4.924000000    -1.980000000
O    -0.570000000    -5.689000000    -0.849000000
C     0.634000000    -6.217000000    -0.651000000
C     1.181000000    -7.025000000    -1.631000000
H     0.606000000    -7.300000000    -2.512000000
C     2.417000000    -7.656000000    -1.441000000
H     3.004000000    -8.176000000    -2.194000000
C     3.146000000    -7.317000000    -0.253000000
H     4.130000000    -7.677000000     0.038000000
C     2.641000000    -6.379000000     0.664000000
C     1.338000000    -5.918000000     0.534000000
H     0.926000000    -5.280000000     1.311000000
C    -2.304000000    -1.926000000    -0.310000000
H    -3.216000000    -2.149000000    -0.857000000
C    -1.532000000    -0.807000000    -0.688000000
H    -1.928000000    -0.116000000    -1.427000000
C    -0.369000000    -0.397000000    -0.068000000
C     0.513000000     0.715000000    -0.501000000
H    -0.041000000     1.629000000    -0.723000000
H     1.190000000     0.918000000     0.332000000
H     1.133000000     0.472000000    -1.367000000
C     0.206000000    -1.294000000     0.827000000
H     1.147000000    -1.090000000     1.331000000
C    -0.539000000    -2.408000000     1.321000000
H    -0.142000000    -3.062000000     2.094000000
C    -1.763000000    -2.754000000     0.722000000
C    -2.544000000    -3.892000000     1.236000000
O    -2.050000000    -4.651000000     2.052000000
O    -3.717000000    -4.075000000     0.910000000
O    -1.066000000    -4.007000000     4.327000000
H    -1.927000000    -3.696000000     4.608000000
H    -1.220000000    -4.391000000     3.464000000
O    -3.776000000    -3.243000000     7.207000000
H    -3.048000000    -2.929000000     7.745000000
H    -3.457000000    -4.061000000     6.827000000
O    -5.508000000    -2.319000000     2.144000000
H    -4.870000000    -1.932000000     2.744000000
H    -4.994000000    -2.916000000     1.600000000
O    -1.772000000    -7.206000000     1.462000000
H    -1.474000000    -7.287000000     0.556000000
H    -1.810000000    -6.262000000     1.618000000
O     0.447000000    -5.644000000     5.770000000
H     0.381000000    -6.451000000     5.259000000
H    -0.273000000    -5.100000000     5.451000000
O    -4.354000000    -8.058000000     1.281000000
H    -4.085000000    -8.638000000     0.569000000
H    -3.535000000    -7.806000000     1.708000000
O    -7.761000000    -4.950000000    -0.222000000
H    -8.362000000    -5.465000000    -0.761000000
H    -6.895000000    -5.138000000    -0.584000000
O    -7.061000000    -7.583000000     1.367000000
H    -7.288000000    -7.959000000     0.516000000
H    -6.134000000    -7.793000000     1.481000000
O    -3.694000000    -5.677000000     5.685000000
H    -3.838000000    -5.522000000     4.751000000
H    -4.233000000    -6.442000000     5.885000000
O    -5.039000000    -5.942000000    -0.461000000
H    -4.716000000    -5.250000000     0.117000000
H    -5.067000000    -6.722000000     0.094000000
O    -5.000000000    -6.988000000    -3.078000000
H    -4.935000000    -6.570000000    -2.219000000
H    -4.426000000    -6.469000000    -3.641000000
O    -6.723000000    -4.220000000     4.423000000
H    -7.385000000    -4.111000000     3.741000000
H    -6.018000000    -4.706000000     3.996000000
O    -2.213000000    -9.579000000     2.370000000
H    -1.910000000    -8.700000000     2.144000000
H    -1.811000000   -10.146000000     1.711000000
O     0.083000000    -7.802000000     4.127000000
H    -0.400000000    -8.575000000     4.419000000
H    -0.289000000    -7.598000000     3.268000000
O    -4.780000000    -5.388000000     2.971000000
H    -4.238000000    -5.133000000     2.224000000
H    -5.101000000    -6.261000000     2.747000000
O    -5.944000000    -2.285000000     5.921000000
H    -6.410000000    -2.953000000     5.419000000
H    -5.156000000    -2.728000000     6.236000000
O    -8.343000000    -2.031000000    -0.781000000
H    -7.691000000    -1.935000000    -0.087000000
H    -8.421000000    -2.976000000    -0.908000000
O    -7.946000000    -1.494000000     2.468000000
H    -8.335000000    -2.368000000     2.510000000
H    -7.052000000    -1.645000000     2.162000000
O    -3.246000000    -1.170000000     3.297000000
H    -2.459000000    -1.713000000     3.333000000
H    -2.920000000    -0.284000000     3.140000000
