218
-1452.28142
C    -1.501000000     3.314000000     4.027000000
H    -1.670000000     3.982000000     3.187000000
C    -0.244000000     2.635000000     4.136000000
C    -0.109000000     1.537000000     5.025000000
H     0.802000000     0.945000000     4.992000000
C     0.826000000     2.901000000     3.086000000
O     0.626000000     4.208000000     2.623000000
H     0.776000000     2.224000000     2.220000000
O     2.127000000     2.795000000     3.612000000
C     3.001000000     2.165000000     2.726000000
C     3.227000000     0.791000000     2.933000000
H     2.898000000     0.245000000     3.813000000
C     4.152000000     0.088000000     2.131000000
O     4.236000000    -1.280000000     2.194000000
C     4.591000000     0.744000000     0.950000000
C     5.464000000     0.000000000    -0.058000000
H     6.188000000     0.662000000    -0.537000000
C     4.605000000    -0.613000000    -1.148000000
C     4.300000000     0.116000000    -2.353000000
H     4.745000000     1.102000000    -2.458000000
H     6.085000000    -0.754000000     0.431000000
C     4.368000000     2.080000000     0.718000000
H     4.884000000     2.603000000    -0.083000000
C     3.646000000     2.791000000     1.710000000
C     3.362000000     4.203000000     1.336000000
H     4.185000000     4.632000000     0.760000000
H     3.335000000     4.785000000     2.259000000
C     1.985000000     4.296000000     0.645000000
C     2.066000000     4.344000000    -0.747000000
H     3.012000000     4.276000000    -1.279000000
C     0.738000000     4.392000000     1.248000000
C    -0.410000000     4.422000000     0.495000000
H    -1.371000000     4.252000000     0.975000000
C    -0.350000000     4.480000000    -0.906000000
O    -1.488000000     4.426000000    -1.680000000
C    -1.961000000     3.136000000    -2.132000000
C    -3.443000000     2.949000000    -1.876000000
C    -4.170000000     2.245000000    -2.863000000
H    -3.836000000     2.100000000    -3.888000000
C    -4.013000000     3.038000000    -0.571000000
H    -3.452000000     3.453000000     0.262000000
O    -1.570000000     3.028000000    -3.544000000
H    -1.520000000     2.343000000    -1.511000000
C     0.932000000     4.418000000    -1.525000000
C     1.002000000     4.526000000    -3.051000000
H     1.979000000     4.881000000    -3.385000000
H     0.200000000     5.144000000    -3.459000000
C     0.853000000     3.138000000    -3.688000000
C     1.980000000     2.442000000    -4.057000000
H     2.971000000     2.841000000    -3.857000000
C    -0.348000000     2.496000000    -3.873000000
C    -0.435000000     1.196000000    -4.429000000
H    -1.413000000     0.785000000    -4.666000000
C     0.720000000     0.451000000    -4.700000000
O     0.493000000    -0.874000000    -4.979000000
C     0.755000000    -1.807000000    -3.931000000
C    -0.254000000    -2.937000000    -3.760000000
C    -1.611000000    -2.633000000    -4.012000000
H    -1.861000000    -1.648000000    -4.399000000
C     0.068000000    -4.174000000    -3.235000000
H     1.042000000    -4.562000000    -2.949000000
O     2.107000000    -2.336000000    -3.996000000
H     0.606000000    -1.285000000    -2.975000000
C     1.948000000     1.068000000    -4.480000000
C     3.274000000     0.308000000    -4.601000000
H     4.117000000     0.985000000    -4.750000000
H     3.252000000    -0.349000000    -5.473000000
C     3.664000000    -0.562000000    -3.381000000
C     2.966000000    -1.767000000    -3.039000000
C     3.182000000    -2.437000000    -1.868000000
H     2.765000000    -3.407000000    -1.609000000
C     4.012000000    -1.840000000    -0.896000000
O     4.130000000    -2.557000000     0.272000000
C     3.389000000    -2.057000000     1.391000000
H     2.611000000    -1.409000000     0.960000000
C     2.829000000    -3.213000000     2.200000000
C     2.447000000    -3.060000000     3.541000000
H     2.615000000    -2.121000000     4.063000000
C     2.661000000    -4.455000000     1.607000000
H     3.045000000    -4.557000000     0.595000000
C     2.199000000    -5.548000000     2.267000000
O     2.025000000    -6.679000000     1.646000000
C     1.615000000    -5.333000000     3.486000000
H     0.992000000    -6.070000000     3.987000000
C     1.831000000    -4.147000000     4.182000000
O     1.245000000    -3.904000000     5.419000000
C     1.197000000    -2.747000000     6.103000000
C     0.042000000    -2.051000000     6.212000000
H    -0.919000000    -2.422000000     5.866000000
C     2.383000000    -2.346000000     6.773000000
H     3.217000000    -3.043000000     6.778000000
C     2.405000000    -1.125000000     7.411000000
H     3.337000000    -0.729000000     7.807000000
C     1.242000000    -0.331000000     7.368000000
H     1.357000000     0.675000000     7.764000000
C     0.087000000    -0.771000000     6.735000000
O    -1.027000000     0.019000000     6.653000000
C    -1.153000000     1.090000000     5.804000000
C    -2.319000000     1.827000000     5.810000000
H    -3.113000000     1.550000000     6.498000000
C    -2.486000000     2.912000000     4.978000000
O    -3.647000000     3.586000000     5.069000000
C    -4.318000000     3.967000000     3.958000000
C    -4.691000000     2.984000000     2.983000000
H    -4.432000000     1.936000000     3.108000000
C    -4.660000000     5.335000000     3.814000000
H    -4.420000000     6.002000000     4.637000000
C    -5.274000000     5.698000000     2.626000000
H    -5.604000000     6.706000000     2.385000000
C    -5.691000000     4.752000000     1.712000000
H    -6.378000000     4.953000000     0.894000000
C    -5.372000000     3.431000000     1.895000000
O    -5.876000000     2.544000000     0.966000000
C    -5.310000000     2.557000000    -0.335000000
C    -6.023000000     1.871000000    -1.326000000
H    -6.945000000     1.346000000    -1.089000000
C    -5.424000000     1.630000000    -2.577000000
O    -6.257000000     0.994000000    -3.524000000
C    -5.670000000     0.033000000    -4.344000000
C    -5.144000000    -1.090000000    -3.861000000
H    -5.251000000    -1.351000000    -2.811000000
C    -5.493000000     0.309000000    -5.636000000
H    -6.109000000     1.125000000    -6.005000000
C    -4.793000000    -0.540000000    -6.476000000
H    -4.740000000    -0.231000000    -7.517000000
C    -4.207000000    -1.718000000    -5.959000000
H    -3.735000000    -2.435000000    -6.627000000
C    -4.390000000    -1.996000000    -4.620000000
O    -3.931000000    -3.145000000    -3.979000000
C    -2.633000000    -3.494000000    -3.808000000
C    -2.372000000    -4.653000000    -3.189000000
H    -3.150000000    -5.322000000    -2.831000000
C    -1.047000000    -5.007000000    -2.911000000
O    -0.804000000    -6.217000000    -2.298000000
C     0.405000000    -6.496000000    -1.673000000
C     1.418000000    -7.077000000    -2.462000000
H     1.262000000    -7.185000000    -3.533000000
C     2.562000000    -7.493000000    -1.915000000
H     3.369000000    -7.912000000    -2.510000000
C     2.773000000    -7.367000000    -0.556000000
H     3.699000000    -7.791000000    -0.176000000
C     1.818000000    -6.720000000     0.268000000
C     0.649000000    -6.226000000    -0.278000000
H    -0.070000000    -5.821000000     0.430000000
C    -2.566000000    -0.810000000     0.632000000
H    -3.485000000    -0.430000000     1.069000000
C    -1.600000000     0.090000000     0.262000000
H    -1.865000000     1.142000000     0.340000000
C    -0.402000000    -0.386000000    -0.316000000
C     0.663000000     0.621000000    -0.740000000
H     0.340000000     1.051000000    -1.690000000
H     0.808000000     1.403000000     0.008000000
H     1.626000000     0.153000000    -0.953000000
C    -0.147000000    -1.756000000    -0.366000000
H     0.793000000    -2.089000000    -0.797000000
C    -1.127000000    -2.650000000    -0.009000000
H    -0.922000000    -3.711000000    -0.129000000
C    -2.308000000    -2.219000000     0.486000000
C    -3.310000000    -3.230000000     0.904000000
O    -3.148000000    -4.465000000     0.726000000
O    -4.407000000    -2.893000000     1.268000000
O    -1.359000000    -9.352000000     0.482000000
H    -1.770000000    -8.495000000     0.368000000
H    -1.047000000    -9.586000000    -0.392000000
O    -3.355000000    -3.074000000     4.105000000
H    -2.472000000    -2.765000000     3.904000000
H    -3.894000000    -2.740000000     3.388000000
O    -4.389000000    -1.847000000     6.629000000
H    -3.808000000    -1.755000000     7.384000000
H    -3.889000000    -2.374000000     6.005000000
O    -5.963000000    -1.621000000     2.938000000
H    -5.564000000    -1.976000000     2.144000000
H    -6.496000000    -2.339000000     3.281000000
O    -2.853000000    -7.200000000     0.445000000
H    -3.754000000    -7.389000000     0.708000000
H    -2.845000000    -6.257000000     0.277000000
O    -5.630000000    -7.622000000    -1.294000000
H    -6.517000000    -7.943000000    -1.455000000
H    -5.218000000    -7.613000000    -2.158000000
O    -8.817000000    -4.596000000     2.370000000
H    -8.835000000    -5.002000000     1.503000000
H    -9.720000000    -4.653000000     2.680000000
O    -5.742000000    -5.779000000    -4.517000000
H    -5.129000000    -5.092000000    -4.254000000
H    -5.255000000    -6.594000000    -4.396000000
O    -1.443000000    -8.044000000     3.452000000
H    -1.230000000    -7.118000000     3.563000000
H    -1.908000000    -8.085000000     2.617000000
O    -4.241000000    -5.457000000     5.499000000
H    -3.983000000    -4.535000000     5.466000000
H    -4.674000000    -5.614000000     4.660000000
O    -6.638000000    -2.369000000    -0.125000000
H    -5.777000000    -2.543000000     0.254000000
H    -6.662000000    -2.903000000    -0.920000000
O    -7.258000000    -3.901000000    -2.597000000
H    -6.975000000    -4.728000000    -2.208000000
H    -7.830000000    -4.159000000    -3.320000000
O    -7.078000000    -3.976000000     4.202000000
H    -7.676000000    -3.992000000     3.454000000
H    -6.315000000    -4.474000000     3.910000000
O    -5.946000000    -7.667000000     1.281000000
H    -5.801000000    -7.659000000     0.335000000
H    -6.887000000    -7.528000000     1.380000000
O    -1.808000000    -5.211000000     2.875000000
H    -2.266000000    -4.898000000     3.655000000
H    -2.336000000    -4.893000000     2.143000000
O    -5.147000000    -5.539000000     2.862000000
H    -4.663000000    -5.030000000     2.212000000
H    -5.391000000    -6.342000000     2.403000000
O    -6.175000000    -0.052000000     5.842000000
H    -6.156000000    -0.152000000     4.890000000
H    -5.673000000    -0.797000000     6.171000000
O    -8.953000000    -2.112000000     1.165000000
H    -8.238000000    -1.985000000     0.541000000
H    -8.628000000    -2.782000000     1.767000000
O    -0.820000000    -1.498000000     3.105000000
H    -1.273000000    -0.923000000     2.488000000
H     0.104000000    -1.267000000     3.013000000
