218
-1462.66180
C    -0.823000000     2.787000000     3.580000000
H    -1.196000000     3.442000000     2.797000000
C     0.536000000     2.461000000     3.712000000
C     0.876000000     1.601000000     4.729000000
H     1.862000000     1.145000000     4.765000000
C     1.527000000     2.798000000     2.558000000
O     1.513000000     4.153000000     2.155000000
H     1.248000000     2.109000000     1.747000000
O     2.901000000     2.310000000     2.935000000
C     3.633000000     1.681000000     1.914000000
C     3.929000000     0.345000000     2.134000000
H     3.644000000    -0.102000000     3.083000000
C     4.712000000    -0.319000000     1.224000000
O     4.816000000    -1.680000000     1.444000000
C     5.015000000     0.297000000    -0.024000000
C     5.469000000    -0.578000000    -1.175000000
H     6.094000000     0.030000000    -1.832000000
C     4.417000000    -1.255000000    -2.039000000
C     4.030000000    -0.610000000    -3.214000000
H     4.522000000     0.263000000    -3.637000000
H     6.182000000    -1.268000000    -0.719000000
C     4.650000000     1.630000000    -0.244000000
H     4.828000000     2.075000000    -1.219000000
C     4.066000000     2.337000000     0.727000000
C     3.812000000     3.796000000     0.529000000
H     4.612000000     4.126000000    -0.137000000
H     3.894000000     4.353000000     1.465000000
C     2.465000000     4.200000000    -0.071000000
C     2.296000000     4.205000000    -1.417000000
H     3.081000000     4.041000000    -2.151000000
C     1.385000000     4.352000000     0.766000000
C     0.084000000     4.502000000     0.220000000
H    -0.750000000     4.684000000     0.893000000
C    -0.080000000     4.435000000    -1.176000000
O    -1.421000000     4.436000000    -1.622000000
C    -2.006000000     3.215000000    -2.016000000
C    -3.486000000     3.228000000    -1.615000000
C    -4.456000000     2.536000000    -2.396000000
H    -4.095000000     1.947000000    -3.235000000
C    -3.935000000     3.870000000    -0.497000000
H    -3.269000000     4.418000000     0.165000000
O    -1.853000000     3.010000000    -3.442000000
H    -1.435000000     2.383000000    -1.577000000
C     1.052000000     4.277000000    -1.974000000
C     0.859000000     4.177000000    -3.438000000
H     1.752000000     4.549000000    -3.945000000
H     0.017000000     4.831000000    -3.674000000
C     0.485000000     2.788000000    -3.840000000
C     1.538000000     1.929000000    -4.298000000
H     2.577000000     2.249000000    -4.296000000
C    -0.804000000     2.311000000    -3.980000000
C    -1.177000000     1.050000000    -4.470000000
H    -2.229000000     0.776000000    -4.502000000
C    -0.087000000     0.195000000    -4.764000000
O    -0.439000000    -1.094000000    -4.846000000
C    -0.186000000    -1.942000000    -3.661000000
C    -1.354000000    -2.805000000    -3.174000000
C    -2.639000000    -2.310000000    -3.014000000
H    -2.853000000    -1.350000000    -3.475000000
C    -1.163000000    -4.043000000    -2.578000000
H    -0.178000000    -4.501000000    -2.587000000
O     1.026000000    -2.716000000    -3.933000000
H     0.007000000    -1.213000000    -2.860000000
C     1.249000000     0.619000000    -4.638000000
C     2.359000000    -0.335000000    -5.086000000
H     3.155000000     0.267000000    -5.529000000
H     2.114000000    -1.019000000    -5.900000000
C     2.923000000    -1.143000000    -3.960000000
C     2.244000000    -2.285000000    -3.453000000
C     2.760000000    -3.021000000    -2.393000000
H     2.293000000    -3.956000000    -2.094000000
C     3.777000000    -2.445000000    -1.644000000
O     4.054000000    -3.161000000    -0.493000000
C     3.680000000    -2.536000000     0.897000000
H     2.844000000    -1.840000000     0.738000000
C     3.199000000    -3.542000000     1.876000000
C     3.249000000    -3.204000000     3.215000000
H     3.800000000    -2.350000000     3.600000000
C     2.432000000    -4.631000000     1.491000000
H     2.223000000    -4.781000000     0.434000000
C     1.808000000    -5.424000000     2.510000000
O     0.869000000    -6.476000000     2.268000000
C     1.899000000    -5.031000000     3.872000000
H     1.590000000    -5.761000000     4.616000000
C     2.647000000    -3.915000000     4.243000000
O     2.860000000    -3.604000000     5.600000000
C     2.769000000    -2.364000000     6.082000000
C     1.608000000    -1.655000000     6.024000000
H     0.760000000    -2.026000000     5.454000000
C     3.932000000    -1.819000000     6.645000000
H     4.876000000    -2.353000000     6.714000000
C     3.823000000    -0.619000000     7.264000000
H     4.617000000    -0.145000000     7.834000000
C     2.632000000     0.111000000     7.184000000
H     2.610000000     1.092000000     7.651000000
C     1.503000000    -0.404000000     6.630000000
O     0.333000000     0.257000000     6.636000000
C    -0.020000000     1.130000000     5.658000000
C    -1.387000000     1.358000000     5.452000000
H    -2.189000000     0.910000000     6.033000000
C    -1.719000000     2.269000000     4.527000000
O    -3.048000000     2.631000000     4.541000000
C    -3.604000000     3.674000000     3.801000000
C    -4.375000000     3.492000000     2.656000000
H    -4.656000000     2.498000000     2.317000000
C    -3.285000000     4.960000000     4.284000000
H    -2.600000000     5.076000000     5.120000000
C    -3.856000000     6.056000000     3.707000000
H    -3.612000000     7.064000000     4.030000000
C    -4.744000000     5.829000000     2.570000000
H    -5.165000000     6.739000000     2.151000000
C    -4.954000000     4.592000000     2.073000000
O    -5.780000000     4.472000000     0.910000000
C    -5.360000000     4.005000000    -0.303000000
C    -6.268000000     3.313000000    -1.043000000
H    -7.330000000     3.346000000    -0.813000000
C    -5.818000000     2.520000000    -2.073000000
O    -6.721000000     1.763000000    -2.870000000
C    -6.308000000     0.585000000    -3.471000000
C    -5.800000000    -0.403000000    -2.711000000
H    -5.822000000    -0.368000000    -1.625000000
C    -6.195000000     0.585000000    -4.879000000
H    -6.636000000     1.459000000    -5.350000000
C    -5.798000000    -0.570000000    -5.497000000
H    -5.819000000    -0.556000000    -6.584000000
C    -5.421000000    -1.660000000    -4.759000000
H    -5.290000000    -2.643000000    -5.202000000
C    -5.365000000    -1.583000000    -3.339000000
O    -5.047000000    -2.674000000    -2.602000000
C    -3.740000000    -3.087000000    -2.642000000
C    -3.463000000    -4.344000000    -2.159000000
H    -4.297000000    -4.952000000    -1.820000000
C    -2.159000000    -4.889000000    -2.056000000
O    -1.890000000    -6.165000000    -1.646000000
C    -0.746000000    -6.574000000    -1.021000000
C     0.266000000    -7.188000000    -1.762000000
H     0.212000000    -7.308000000    -2.841000000
C     1.416000000    -7.719000000    -1.165000000
H     2.245000000    -8.079000000    -1.770000000
C     1.586000000    -7.549000000     0.230000000
H     2.542000000    -7.945000000     0.565000000
C     0.664000000    -6.862000000     0.960000000
C    -0.520000000    -6.365000000     0.320000000
H    -1.182000000    -5.910000000     1.052000000
C    -2.714000000    -0.408000000     0.418000000
H    -3.558000000     0.276000000     0.384000000
C    -1.429000000     0.162000000     0.247000000
H    -1.250000000     1.232000000     0.176000000
C    -0.311000000    -0.657000000     0.179000000
C     1.017000000     0.024000000    -0.069000000
H     0.796000000     1.088000000    -0.178000000
H     1.673000000    -0.022000000     0.802000000
H     1.460000000    -0.344000000    -0.997000000
C    -0.380000000    -1.989000000     0.390000000
H     0.534000000    -2.576000000     0.419000000
C    -1.637000000    -2.554000000     0.554000000
H    -1.800000000    -3.619000000     0.697000000
C    -2.798000000    -1.783000000     0.664000000
C    -4.083000000    -2.471000000     0.928000000
O    -4.092000000    -3.483000000     1.621000000
O    -5.110000000    -1.915000000     0.627000000
O    -7.044000000    -0.321000000     3.473000000
H    -6.424000000    -0.105000000     2.776000000
H    -6.964000000     0.401000000     4.097000000
O    -2.331000000    -2.729000000     6.176000000
H    -2.171000000    -2.969000000     5.263000000
H    -2.121000000    -1.796000000     6.218000000
O    -1.766000000    -5.381000000     3.501000000
H    -2.551000000    -5.403000000     4.049000000
H    -1.588000000    -6.301000000     3.302000000
O    -9.957000000    -1.698000000     1.738000000
H   -10.557000000    -2.387000000     2.024000000
H    -9.085000000    -2.066000000     1.879000000
O    -5.051000000    -2.684000000     4.042000000
H    -4.748000000    -2.879000000     3.155000000
H    -5.473000000    -1.828000000     3.968000000
O    -7.207000000    -3.033000000     1.533000000
H    -6.921000000    -3.849000000     1.942000000
H    -6.398000000    -2.617000000     1.234000000
O    -4.133000000    -5.988000000     0.700000000
H    -3.268000000    -6.261000000     1.007000000
H    -4.121000000    -5.033000000     0.773000000
O    -8.701000000     0.469000000     0.872000000
H    -9.154000000     0.682000000     0.056000000
H    -9.311000000    -0.099000000     1.343000000
O    -8.573000000    -4.766000000    -0.332000000
H    -8.750000000    -5.506000000     0.249000000
H    -8.270000000    -4.071000000     0.252000000
O    -5.734000000    -8.123000000    -0.981000000
H    -5.312000000    -7.464000000    -0.430000000
H    -6.644000000    -8.135000000    -0.685000000
O    -5.158000000    -2.907000000     6.747000000
H    -5.065000000    -2.768000000     5.805000000
H    -4.258000000    -2.961000000     7.071000000
O    -6.956000000    -5.188000000     4.118000000
H    -7.536000000    -5.746000000     4.636000000
H    -7.170000000    -4.297000000     4.396000000
O    -7.697000000    -1.933000000    -1.043000000
H    -6.860000000    -2.364000000    -0.869000000
H    -8.024000000    -1.685000000    -0.178000000
O    -4.344000000    -6.109000000     4.401000000
H    -4.342000000    -6.608000000     3.585000000
H    -5.110000000    -5.538000000     4.331000000
O    -6.422000000    -7.188000000     1.793000000
H    -6.974000000    -6.470000000     2.102000000
H    -5.678000000    -6.755000000     1.374000000
O    -8.479000000    -2.377000000     4.540000000
H    -7.971000000    -1.651000000     4.177000000
H    -8.254000000    -2.386000000     5.470000000
O    -5.849000000     0.509000000     1.028000000
H    -5.381000000    -0.326000000     1.062000000
H    -6.768000000     0.264000000     0.925000000
O    -1.131000000    -2.637000000     3.701000000
H    -1.101000000    -3.585000000     3.571000000
H    -1.025000000    -2.272000000     2.822000000
O    -6.079000000    -5.245000000    -3.892000000
H    -5.814000000    -4.471000000    -3.395000000
H    -7.036000000    -5.227000000    -3.871000000
