218
-1463.44694
C    -0.936000000     2.791000000     4.164000000
H    -1.308000000     3.730000000     3.763000000
C     0.305000000     2.215000000     3.821000000
C     0.653000000     1.040000000     4.463000000
H     1.477000000     0.403000000     4.155000000
C     1.176000000     2.853000000     2.732000000
O     0.831000000     4.198000000     2.538000000
H     0.953000000     2.302000000     1.807000000
O     2.584000000     2.675000000     3.032000000
C     3.395000000     2.196000000     2.033000000
C     3.870000000     0.850000000     2.188000000
H     3.644000000     0.234000000     3.055000000
C     4.514000000     0.249000000     1.125000000
O     4.747000000    -1.101000000     1.243000000
C     4.759000000     0.955000000    -0.063000000
C     5.493000000     0.274000000    -1.243000000
H     6.029000000     1.022000000    -1.832000000
C     4.552000000    -0.518000000    -2.145000000
C     3.902000000     0.214000000    -3.163000000
H     4.009000000     1.282000000    -3.329000000
H     6.325000000    -0.328000000    -0.873000000
C     4.396000000     2.319000000    -0.227000000
H     4.665000000     2.699000000    -1.209000000
C     3.644000000     2.958000000     0.771000000
C     3.253000000     4.406000000     0.777000000
H     3.906000000     4.860000000     0.028000000
H     3.428000000     4.833000000     1.767000000
C     1.790000000     4.616000000     0.336000000
C     1.553000000     4.737000000    -1.031000000
H     2.443000000     4.845000000    -1.646000000
C     0.719000000     4.435000000     1.203000000
C    -0.599000000     4.386000000     0.713000000
H    -1.455000000     4.288000000     1.376000000
C    -0.790000000     4.444000000    -0.650000000
O    -2.074000000     4.278000000    -1.212000000
C    -2.444000000     2.938000000    -1.634000000
C    -3.857000000     2.708000000    -1.038000000
C    -4.697000000     1.833000000    -1.708000000
H    -4.308000000     1.255000000    -2.542000000
C    -4.256000000     3.348000000     0.084000000
H    -3.612000000     4.071000000     0.578000000
O    -2.422000000     2.926000000    -3.055000000
H    -1.820000000     2.118000000    -1.250000000
C     0.254000000     4.580000000    -1.537000000
C     0.157000000     4.507000000    -3.021000000
H     1.020000000     4.906000000    -3.559000000
H    -0.558000000     5.278000000    -3.318000000
C    -0.090000000     3.099000000    -3.575000000
C     1.032000000     2.395000000    -4.070000000
H     1.991000000     2.885000000    -3.922000000
C    -1.357000000     2.429000000    -3.653000000
C    -1.466000000     1.149000000    -4.255000000
H    -2.410000000     0.611000000    -4.243000000
C    -0.285000000     0.482000000    -4.681000000
O    -0.302000000    -0.926000000    -5.026000000
C     0.047000000    -1.859000000    -3.951000000
C    -1.012000000    -2.987000000    -3.620000000
C    -2.349000000    -2.674000000    -3.623000000
H    -2.680000000    -1.656000000    -3.815000000
C    -0.655000000    -4.304000000    -3.382000000
H     0.391000000    -4.591000000    -3.448000000
O     1.394000000    -2.328000000    -4.208000000
H     0.016000000    -1.239000000    -3.043000000
C     0.956000000     1.115000000    -4.595000000
C     2.265000000     0.482000000    -4.960000000
H     2.947000000     1.286000000    -5.248000000
H     2.062000000    -0.246000000    -5.748000000
C     2.835000000    -0.370000000    -3.865000000
C     2.447000000    -1.721000000    -3.548000000
C     3.026000000    -2.378000000    -2.429000000
H     2.679000000    -3.367000000    -2.142000000
C     4.114000000    -1.793000000    -1.756000000
O     4.445000000    -2.439000000    -0.605000000
C     3.823000000    -1.965000000     0.559000000
H     2.895000000    -1.430000000     0.313000000
C     3.485000000    -3.108000000     1.524000000
C     3.828000000    -3.220000000     2.868000000
H     4.497000000    -2.431000000     3.203000000
C     2.675000000    -4.143000000     1.031000000
H     2.380000000    -4.057000000    -0.012000000
C     2.253000000    -5.244000000     1.819000000
O     1.526000000    -6.243000000     1.241000000
C     2.617000000    -5.254000000     3.178000000
H     2.206000000    -5.990000000     3.864000000
C     3.374000000    -4.210000000     3.679000000
O     3.613000000    -4.076000000     5.048000000
C     3.164000000    -2.949000000     5.698000000
C     1.846000000    -2.430000000     5.476000000
H     1.213000000    -3.049000000     4.845000000
C     3.994000000    -2.314000000     6.576000000
H     5.005000000    -2.709000000     6.635000000
C     3.664000000    -1.068000000     7.072000000
H     4.406000000    -0.527000000     7.654000000
C     2.354000000    -0.542000000     6.899000000
H     2.022000000     0.369000000     7.390000000
C     1.407000000    -1.264000000     6.159000000
O     0.176000000    -0.716000000     5.940000000
C    -0.178000000     0.476000000     5.405000000
C    -1.398000000     0.947000000     5.653000000
H    -1.973000000     0.499000000     6.460000000
C    -1.793000000     2.145000000     5.067000000
O    -3.039000000     2.668000000     5.466000000
C    -3.700000000     3.572000000     4.683000000
C    -4.609000000     3.222000000     3.734000000
H    -4.948000000     2.189000000     3.703000000
C    -3.332000000     4.914000000     4.797000000
H    -2.716000000     5.123000000     5.668000000
C    -3.734000000     5.886000000     3.891000000
H    -3.226000000     6.842000000     3.989000000
C    -4.472000000     5.487000000     2.715000000
H    -4.725000000     6.155000000     1.895000000
C    -4.995000000     4.150000000     2.719000000
O    -5.895000000     3.732000000     1.831000000
C    -5.512000000     3.168000000     0.641000000
C    -6.389000000     2.363000000    -0.076000000
H    -7.428000000     2.215000000     0.208000000
C    -6.014000000     1.659000000    -1.228000000
O    -6.904000000     0.770000000    -1.760000000
C    -6.583000000    -0.078000000    -2.771000000
C    -5.789000000    -1.214000000    -2.403000000
H    -5.510000000    -1.439000000    -1.376000000
C    -6.656000000     0.271000000    -4.121000000
H    -7.233000000     1.148000000    -4.406000000
C    -5.996000000    -0.556000000    -5.062000000
H    -6.050000000    -0.345000000    -6.126000000
C    -5.218000000    -1.686000000    -4.756000000
H    -4.580000000    -2.301000000    -5.386000000
C    -5.134000000    -1.985000000    -3.390000000
O    -4.574000000    -3.182000000    -2.958000000
C    -3.297000000    -3.595000000    -3.252000000
C    -2.909000000    -4.843000000    -2.978000000
H    -3.679000000    -5.494000000    -2.574000000
C    -1.590000000    -5.257000000    -3.073000000
O    -1.158000000    -6.547000000    -2.715000000
C     0.104000000    -6.713000000    -2.136000000
C     1.164000000    -7.274000000    -2.778000000
H     1.018000000    -7.552000000    -3.819000000
C     2.424000000    -7.415000000    -2.129000000
H     3.314000000    -7.670000000    -2.699000000
C     2.538000000    -7.075000000    -0.800000000
H     3.454000000    -7.242000000    -0.239000000
C     1.424000000    -6.562000000    -0.114000000
C     0.258000000    -6.322000000    -0.817000000
H    -0.537000000    -5.868000000    -0.231000000
C    -3.098000000     0.254000000     1.347000000
H    -3.506000000     1.019000000     2.003000000
C    -1.807000000     0.393000000     0.922000000
H    -1.163000000     1.187000000     1.291000000
C    -1.204000000    -0.601000000     0.137000000
C     0.270000000    -0.502000000    -0.243000000
H     0.792000000    -0.191000000     0.664000000
H     0.640000000    -1.428000000    -0.690000000
H     0.534000000     0.257000000    -0.983000000
C    -1.885000000    -1.712000000    -0.257000000
H    -1.483000000    -2.511000000    -0.875000000
C    -3.239000000    -1.865000000     0.149000000
H    -3.739000000    -2.765000000    -0.202000000
C    -3.805000000    -0.876000000     0.942000000
C    -5.220000000    -1.046000000     1.451000000
O    -5.891000000    -1.942000000     1.059000000
O    -5.626000000    -0.348000000     2.354000000
O    -4.683000000    -0.357000000     5.171000000
H    -5.113000000    -0.428000000     4.319000000
H    -3.883000000    -0.875000000     5.079000000
O    -2.409000000    -2.419000000     5.080000000
H    -1.637000000    -2.148000000     4.583000000
H    -2.892000000    -2.987000000     4.480000000
O    -9.051000000    -4.767000000     4.437000000
H    -8.402000000    -4.165000000     4.073000000
H    -9.397000000    -4.310000000     5.204000000
O    -1.845000000    -5.772000000     1.953000000
H    -2.193000000    -6.567000000     2.357000000
H    -2.581000000    -5.414000000     1.457000000
O    -4.676000000    -4.343000000     4.288000000
H    -4.851000000    -4.788000000     3.459000000
H    -5.369000000    -3.686000000     4.359000000
O    -6.222000000    -4.414000000     0.101000000
H    -6.981000000    -4.323000000    -0.474000000
H    -6.012000000    -3.518000000     0.364000000
O    -3.827000000    -5.651000000     0.026000000
H    -4.265000000    -6.454000000    -0.254000000
H    -4.521000000    -4.992000000     0.040000000
O    -9.355000000     0.366000000     2.755000000
H    -9.626000000     0.847000000     1.973000000
H    -9.010000000    -0.462000000     2.419000000
O   -10.518000000    -1.260000000     4.780000000
H    -9.572000000    -1.179000000     4.903000000
H   -10.834000000    -0.357000000     4.749000000
O    -8.431000000    -3.553000000    -1.370000000
H    -8.043000000    -3.436000000    -2.238000000
H    -9.104000000    -4.221000000    -1.497000000
O    -8.208000000    -0.692000000     6.150000000
H    -7.610000000    -0.741000000     6.896000000
H    -7.808000000    -0.052000000     5.563000000
O    -9.848000000    -1.238000000    -2.252000000
H    -9.262000000    -1.943000000    -2.525000000
H    -9.362000000    -0.773000000    -1.571000000
O    -8.512000000    -1.927000000     0.836000000
H    -7.565000000    -1.875000000     0.964000000
H    -8.647000000    -2.760000000     0.384000000
O    -6.787000000    -5.983000000     2.620000000
H    -7.719000000    -5.859000000     2.801000000
H    -6.675000000    -5.674000000     1.721000000
O    -7.169000000    -2.964000000     3.535000000
H    -7.633000000    -2.190000000     3.854000000
H    -6.565000000    -2.626000000     2.874000000
O    -8.103000000     2.488000000     6.193000000
H    -7.665000000     1.860000000     5.618000000
H    -8.834000000     1.997000000     6.570000000
O    -7.137000000     1.005000000     3.913000000
H    -6.497000000     0.541000000     3.373000000
H    -7.926000000     1.040000000     3.373000000
O   -11.633000000    -1.241000000     1.159000000
H   -10.687000000    -1.254000000     1.015000000
H   -12.000000000    -0.969000000     0.317000000
O    -0.598000000    -3.166000000     3.091000000
H    -0.609000000    -4.118000000     2.992000000
H    -0.813000000    -2.833000000     2.220000000
