218
-1443.04238
C    -3.308000000    -3.012000000    -2.042000000
H    -2.845000000    -2.544000000    -2.906000000
C    -3.987000000    -2.204000000    -1.117000000
C    -4.546000000    -2.783000000     0.053000000
H    -5.087000000    -2.215000000     0.806000000
C    -3.969000000    -0.728000000    -1.257000000
O    -4.015000000    -0.307000000    -2.611000000
H    -3.028000000    -0.399000000    -0.792000000
O    -5.036000000    -0.111000000    -0.503000000
C    -4.546000000     0.959000000     0.285000000
C    -4.215000000     0.763000000     1.617000000
H    -4.455000000    -0.162000000     2.134000000
C    -3.515000000     1.819000000     2.324000000
O    -2.994000000     1.497000000     3.552000000
C    -3.236000000     3.022000000     1.680000000
C    -2.496000000     4.174000000     2.402000000
H    -2.798000000     5.083000000     1.877000000
C    -1.000000000     4.135000000     2.278000000
C    -0.392000000     4.784000000     1.195000000
H    -0.949000000     5.350000000     0.453000000
H    -2.806000000     4.170000000     3.449000000
C    -3.653000000     3.184000000     0.394000000
H    -3.372000000     4.083000000    -0.149000000
C    -4.244000000     2.163000000    -0.348000000
C    -4.614000000     2.474000000    -1.807000000
H    -4.860000000     3.538000000    -1.817000000
H    -5.474000000     1.890000000    -2.140000000
C    -3.441000000     2.043000000    -2.641000000
C    -2.525000000     3.017000000    -3.062000000
H    -2.589000000     4.040000000    -2.699000000
C    -3.320000000     0.725000000    -3.136000000
C    -2.230000000     0.376000000    -3.891000000
H    -1.943000000    -0.626000000    -4.201000000
C    -1.407000000     1.341000000    -4.375000000
O    -0.267000000     0.911000000    -5.043000000
C     0.832000000     0.541000000    -4.242000000
C     1.436000000    -0.869000000    -4.584000000
C     2.682000000    -1.170000000    -4.088000000
H     3.121000000    -0.410000000    -3.447000000
C     0.719000000    -1.813000000    -5.260000000
H    -0.334000000    -1.732000000    -5.517000000
O     1.870000000     1.497000000    -4.320000000
H     0.483000000     0.500000000    -3.199000000
C    -1.563000000     2.684000000    -3.995000000
C    -0.407000000     3.640000000    -4.244000000
H    -0.872000000     4.627000000    -4.198000000
H    -0.088000000     3.441000000    -5.270000000
C     0.759000000     3.454000000    -3.256000000
C     0.836000000     4.398000000    -2.191000000
H    -0.039000000     5.009000000    -1.989000000
C     1.738000000     2.480000000    -3.329000000
C     2.819000000     2.524000000    -2.421000000
H     3.490000000     1.672000000    -2.483000000
C     2.892000000     3.457000000    -1.370000000
O     3.906000000     3.383000000    -0.380000000
C     3.432000000     2.614000000     0.767000000
C     4.397000000     1.602000000     1.202000000
C     5.316000000     0.943000000     0.372000000
H     5.213000000     1.243000000    -0.667000000
C     4.421000000     1.188000000     2.496000000
H     3.748000000     1.640000000     3.220000000
O     3.107000000     3.620000000     1.846000000
H     2.531000000     2.036000000     0.517000000
C     1.854000000     4.405000000    -1.290000000
C     1.783000000     5.312000000    -0.107000000
H     1.351000000     6.252000000    -0.457000000
H     2.784000000     5.574000000     0.240000000
C     1.040000000     4.718000000     1.073000000
C     1.752000000     3.959000000     1.995000000
C     1.062000000     3.268000000     3.014000000
H     1.532000000     2.539000000     3.669000000
C    -0.304000000     3.379000000     3.196000000
O    -0.899000000     2.556000000     4.068000000
C    -1.605000000     1.304000000     3.706000000
H    -1.131000000     0.827000000     2.835000000
C    -1.339000000     0.249000000     4.792000000
C    -2.057000000    -0.978000000     4.760000000
H    -2.894000000    -1.106000000     4.079000000
C    -0.326000000     0.384000000     5.791000000
H     0.279000000     1.287000000     5.797000000
C     0.008000000    -0.671000000     6.641000000
O     1.188000000    -0.602000000     7.392000000
C    -0.556000000    -1.934000000     6.434000000
H    -0.157000000    -2.817000000     6.925000000
C    -1.561000000    -2.102000000     5.502000000
O    -2.273000000    -3.331000000     5.498000000
C    -3.456000000    -3.494000000     4.742000000
C    -3.446000000    -4.098000000     3.525000000
H    -2.487000000    -4.501000000     3.211000000
C    -4.665000000    -2.946000000     5.230000000
H    -4.682000000    -2.454000000     6.199000000
C    -5.720000000    -2.788000000     4.396000000
H    -6.516000000    -2.188000000     4.831000000
C    -5.770000000    -3.456000000     3.152000000
H    -6.583000000    -3.303000000     2.446000000
C    -4.639000000    -4.145000000     2.760000000
O    -4.638000000    -4.784000000     1.541000000
C    -4.414000000    -4.132000000     0.254000000
C    -3.709000000    -4.949000000    -0.658000000
H    -3.486000000    -5.992000000    -0.447000000
C    -3.318000000    -4.429000000    -1.883000000
O    -2.704000000    -5.316000000    -2.808000000
C    -2.405000000    -5.043000000    -4.098000000
C    -1.179000000    -4.447000000    -4.415000000
H    -0.444000000    -4.199000000    -3.653000000
C    -3.278000000    -5.534000000    -5.047000000
H    -4.238000000    -5.999000000    -4.838000000
C    -2.832000000    -5.338000000    -6.395000000
H    -3.405000000    -5.861000000    -7.157000000
C    -1.645000000    -4.782000000    -6.729000000
H    -1.298000000    -4.773000000    -7.759000000
C    -0.736000000    -4.493000000    -5.690000000
O     0.539000000    -4.095000000    -6.082000000
C     1.280000000    -3.097000000    -5.400000000
C     2.590000000    -3.464000000    -4.940000000
H     3.066000000    -4.428000000    -5.100000000
C     3.291000000    -2.433000000    -4.303000000
O     4.555000000    -2.723000000    -3.857000000
C     5.361000000    -1.771000000    -3.363000000
C     5.720000000    -1.861000000    -2.020000000
H     5.221000000    -2.643000000    -1.453000000
C     6.042000000    -0.852000000    -4.172000000
H     5.872000000    -0.832000000    -5.246000000
C     6.885000000     0.151000000    -3.661000000
H     7.258000000     0.884000000    -4.371000000
C     7.058000000     0.163000000    -2.265000000
H     7.794000000     0.835000000    -1.829000000
C     6.496000000    -0.895000000    -1.468000000
O     6.751000000    -0.955000000    -0.172000000
C     5.955000000    -0.247000000     0.684000000
C     5.865000000    -0.711000000     2.021000000
H     6.273000000    -1.701000000     2.209000000
C     5.022000000    -0.025000000     2.905000000
O     4.719000000    -0.500000000     4.127000000
C     4.139000000     0.119000000     5.253000000
C     4.587000000     1.315000000     5.709000000
H     5.485000000     1.847000000     5.407000000
C     3.862000000     1.961000000     6.683000000
H     4.285000000     2.879000000     7.082000000
C     2.766000000     1.311000000     7.288000000
H     2.317000000     1.722000000     8.188000000
C     2.310000000     0.066000000     6.873000000
C     2.995000000    -0.448000000     5.761000000
H     2.515000000    -1.301000000     5.287000000
C     0.782000000    -2.404000000    -1.306000000
H     0.777000000    -3.074000000    -2.162000000
C    -0.054000000    -1.253000000    -1.186000000
H    -0.791000000    -0.962000000    -1.930000000
C     0.205000000    -0.281000000    -0.205000000
C    -0.653000000     0.957000000    -0.160000000
H    -0.306000000     1.675000000     0.586000000
H    -0.530000000     1.528000000    -1.083000000
H    -1.667000000     0.633000000     0.081000000
C     1.179000000    -0.543000000     0.742000000
H     1.251000000     0.076000000     1.632000000
C     1.948000000    -1.739000000     0.654000000
H     2.584000000    -1.972000000     1.505000000
C     1.815000000    -2.635000000    -0.396000000
C     2.688000000    -3.862000000    -0.559000000
O     3.410000000    -4.154000000     0.379000000
O     2.502000000    -4.635000000    -1.407000000
O     2.520000000    -3.596000000     4.917000000
H     3.412000000    -3.536000000     4.575000000
H     2.527000000    -4.380000000     5.466000000
O     7.548000000    -5.217000000    -3.074000000
H     6.712000000    -4.909000000    -2.724000000
H     7.397000000    -5.302000000    -4.016000000
O     0.417000000    -6.314000000    -0.846000000
H     0.959000000    -5.569000000    -1.105000000
H     1.012000000    -6.883000000    -0.357000000
O     6.033000000    -6.358000000     3.292000000
H     6.498000000    -7.193000000     3.340000000
H     5.110000000    -6.601000000     3.220000000
O     8.458000000    -3.668000000     0.922000000
H     7.539000000    -3.932000000     0.876000000
H     8.688000000    -3.442000000     0.021000000
O     2.449000000    -6.452000000    -3.366000000
H     3.375000000    -6.490000000    -3.605000000
H     2.383000000    -5.696000000    -2.783000000
O     4.646000000    -4.014000000     3.333000000
H     5.022000000    -4.886000000     3.215000000
H     4.428000000    -3.726000000     2.447000000
O     2.241000000    -8.783000000    -1.454000000
H     2.943000000    -8.626000000    -0.821000000
H     2.321000000    -8.066000000    -2.083000000
O     0.554000000    -4.159000000     2.727000000
H    -0.079000000    -3.509000000     2.422000000
H     1.241000000    -3.644000000     3.151000000
O    -1.704000000    -7.841000000    -1.782000000
H    -2.342000000    -7.317000000    -2.267000000
H    -0.876000000    -7.373000000    -1.892000000
O    -1.406000000    -2.197000000     1.381000000
H    -1.718000000    -2.853000000     0.758000000
H    -0.649000000    -1.799000000     0.951000000
O     3.615000000    -7.521000000     3.910000000
H     3.689000000    -8.474000000     3.957000000
H     2.673000000    -7.355000000     3.881000000
O    -1.059000000    -6.121000000     1.492000000
H    -0.631000000    -5.482000000     2.061000000
H    -0.448000000    -6.243000000     0.765000000
O     2.053000000    -6.371000000     1.515000000
H     2.627000000    -5.889000000     0.920000000
H     1.755000000    -5.715000000     2.145000000
O     3.675000000    -8.973000000     0.722000000
H     3.095000000    -8.318000000     1.110000000
H     3.726000000    -9.667000000     1.380000000
O     4.878000000    -7.124000000    -4.122000000
H     5.254000000    -7.879000000    -4.575000000
H     5.016000000    -6.391000000    -4.722000000
O     0.721000000    -8.201000000    -4.641000000
H     1.313000000    -7.607000000    -4.178000000
H     1.294000000    -8.879000000    -4.999000000
O     5.994000000    -4.852000000     0.386000000
H     5.128000000    -4.444000000     0.374000000
H     5.826000000    -5.775000000     0.192000000
O     4.750000000    -6.548000000    -1.354000000
H     4.207000000    -5.764000000    -1.275000000
H     4.560000000    -6.884000000    -2.231000000
