218
-1481.17611
C    -2.263000000     2.824000000     3.723000000
H    -2.696000000     3.411000000     2.917000000
C    -0.837000000     2.703000000     3.871000000
C    -0.385000000     1.875000000     4.914000000
H     0.673000000     1.709000000     5.099000000
C     0.115000000     3.243000000     2.792000000
O    -0.514000000     4.368000000     2.098000000
H     0.264000000     2.353000000     2.163000000
O     1.419000000     3.673000000     3.298000000
C     2.450000000     3.183000000     2.452000000
C     3.050000000     1.950000000     2.780000000
H     2.673000000     1.265000000     3.535000000
C     3.910000000     1.367000000     1.845000000
O     4.335000000     0.110000000     2.166000000
C     4.326000000     2.064000000     0.710000000
C     5.310000000     1.439000000    -0.263000000
H     5.822000000     2.218000000    -0.831000000
C     4.478000000     0.589000000    -1.253000000
C     4.030000000     1.088000000    -2.467000000
H     4.312000000     2.107000000    -2.719000000
H     6.041000000     0.935000000     0.374000000
C     3.738000000     3.286000000     0.404000000
H     3.972000000     3.758000000    -0.546000000
C     2.791000000     3.846000000     1.284000000
C     2.036000000     5.095000000     0.829000000
H     2.690000000     5.755000000     0.256000000
H     1.752000000     5.700000000     1.693000000
C     0.787000000     4.777000000     0.037000000
C     0.772000000     4.855000000    -1.363000000
H     1.745000000     4.983000000    -1.831000000
C    -0.382000000     4.413000000     0.661000000
C    -1.571000000     4.214000000    -0.081000000
H    -2.423000000     3.998000000     0.559000000
C    -1.607000000     4.312000000    -1.430000000
O    -2.781000000     4.011000000    -2.065000000
C    -2.788000000     2.625000000    -2.454000000
C    -4.123000000     1.993000000    -2.071000000
C    -4.396000000     0.649000000    -2.521000000
H    -3.618000000     0.112000000    -3.057000000
C    -4.999000000     2.530000000    -1.159000000
H    -4.815000000     3.498000000    -0.700000000
O    -2.381000000     2.427000000    -3.797000000
H    -2.028000000     2.143000000    -1.821000000
C    -0.412000000     4.677000000    -2.074000000
C    -0.211000000     4.401000000    -3.540000000
H     0.672000000     4.936000000    -3.895000000
H    -1.083000000     4.855000000    -4.014000000
C     0.018000000     2.987000000    -3.939000000
C     1.318000000     2.521000000    -4.222000000
H     2.120000000     3.245000000    -4.104000000
C    -1.068000000     2.097000000    -4.019000000
C    -0.811000000     0.842000000    -4.399000000
H    -1.576000000     0.070000000    -4.420000000
C     0.454000000     0.341000000    -4.667000000
O     0.625000000    -1.034000000    -4.937000000
C     1.074000000    -1.787000000    -3.766000000
C     0.441000000    -3.096000000    -3.616000000
C    -0.889000000    -3.219000000    -4.028000000
H    -1.437000000    -2.355000000    -4.392000000
C     1.117000000    -4.186000000    -3.120000000
H     2.191000000    -4.190000000    -2.955000000
O     2.505000000    -1.875000000    -3.893000000
H     0.847000000    -1.210000000    -2.857000000
C     1.537000000     1.215000000    -4.663000000
C     2.955000000     0.730000000    -4.709000000
H     3.617000000     1.550000000    -4.997000000
H     3.062000000     0.030000000    -5.540000000
C     3.394000000     0.246000000    -3.335000000
C     3.229000000    -1.079000000    -3.081000000
C     3.748000000    -1.639000000    -1.879000000
H     3.609000000    -2.660000000    -1.533000000
C     4.263000000    -0.772000000    -0.932000000
O     4.553000000    -1.318000000     0.308000000
C     3.665000000    -0.989000000     1.423000000
H     2.679000000    -0.683000000     1.045000000
C     3.501000000    -2.267000000     2.252000000
C     3.183000000    -2.132000000     3.570000000
H     3.095000000    -1.146000000     4.021000000
C     3.355000000    -3.516000000     1.638000000
H     3.464000000    -3.552000000     0.557000000
C     3.238000000    -4.643000000     2.452000000
O     3.327000000    -5.924000000     1.966000000
C     3.089000000    -4.473000000     3.811000000
H     3.080000000    -5.389000000     4.397000000
C     2.927000000    -3.224000000     4.403000000
O     2.640000000    -3.183000000     5.749000000
C     2.176000000    -2.093000000     6.470000000
C     0.935000000    -1.457000000     6.173000000
H     0.334000000    -1.840000000     5.352000000
C     2.949000000    -1.604000000     7.547000000
H     3.830000000    -2.181000000     7.814000000
C     2.502000000    -0.460000000     8.165000000
H     3.225000000    -0.012000000     8.841000000
C     1.263000000     0.124000000     7.879000000
H     0.930000000     0.977000000     8.466000000
C     0.428000000    -0.363000000     6.910000000
O    -0.793000000     0.290000000     6.767000000
C    -1.259000000     1.090000000     5.671000000
C    -2.622000000     1.232000000     5.550000000
H    -3.284000000     0.694000000     6.224000000
C    -3.119000000     2.142000000     4.624000000
O    -4.480000000     2.238000000     4.486000000
C    -5.176000000     2.931000000     3.517000000
C    -5.645000000     2.267000000     2.349000000
H    -5.208000000     1.288000000     2.172000000
C    -5.532000000     4.247000000     3.734000000
H    -5.244000000     4.776000000     4.639000000
C    -6.302000000     4.983000000     2.805000000
H    -6.593000000     6.022000000     2.942000000
C    -6.717000000     4.292000000     1.690000000
H    -7.246000000     4.888000000     0.951000000
C    -6.395000000     2.934000000     1.470000000
O    -6.890000000     2.347000000     0.333000000
C    -6.086000000     1.795000000    -0.659000000
C    -6.365000000     0.520000000    -1.099000000
H    -7.203000000    -0.014000000    -0.658000000
C    -5.492000000    -0.095000000    -2.033000000
O    -5.711000000    -1.458000000    -2.328000000
C    -5.177000000    -2.024000000    -3.394000000
C    -4.289000000    -3.079000000    -3.236000000
H    -3.993000000    -3.306000000    -2.215000000
C    -5.419000000    -1.520000000    -4.676000000
H    -6.139000000    -0.747000000    -4.930000000
C    -4.675000000    -1.981000000    -5.792000000
H    -4.865000000    -1.468000000    -6.731000000
C    -3.855000000    -3.067000000    -5.598000000
H    -3.450000000    -3.499000000    -6.509000000
C    -3.641000000    -3.626000000    -4.322000000
O    -2.819000000    -4.711000000    -4.158000000
C    -1.526000000    -4.451000000    -3.739000000
C    -0.849000000    -5.519000000    -3.187000000
H    -1.434000000    -6.420000000    -3.026000000
C     0.481000000    -5.367000000    -2.805000000
O     1.171000000    -6.486000000    -2.310000000
C     2.330000000    -6.557000000    -1.536000000
C     3.374000000    -7.245000000    -2.071000000
H     3.318000000    -7.548000000    -3.114000000
C     4.383000000    -7.622000000    -1.220000000
H     5.221000000    -8.108000000    -1.714000000
C     4.441000000    -7.126000000     0.110000000
H     5.343000000    -7.428000000     0.637000000
C     3.350000000    -6.328000000     0.613000000
C     2.238000000    -6.182000000    -0.168000000
H     1.344000000    -5.712000000     0.232000000
C    -2.498000000    -0.059000000     0.769000000
H    -3.417000000     0.344000000     1.187000000
C    -1.403000000     0.695000000     0.432000000
H    -1.450000000     1.772000000     0.568000000
C    -0.277000000     0.064000000    -0.133000000
C     0.881000000     0.886000000    -0.542000000
H     0.546000000     1.779000000    -1.074000000
H     1.442000000     1.226000000     0.331000000
H     1.517000000     0.335000000    -1.238000000
C    -0.369000000    -1.298000000    -0.440000000
H     0.498000000    -1.808000000    -0.853000000
C    -1.481000000    -2.049000000    -0.154000000
H    -1.514000000    -3.111000000    -0.380000000
C    -2.496000000    -1.429000000     0.565000000
C    -3.721000000    -2.273000000     0.997000000
O    -3.762000000    -3.462000000     0.769000000
O    -4.687000000    -1.655000000     1.465000000
O    -4.570000000    -6.334000000    -2.700000000
H    -4.962000000    -6.731000000    -3.477000000
H    -4.271000000    -5.474000000    -2.995000000
O    -2.248000000    -2.080000000     4.657000000
H    -2.174000000    -2.280000000     5.591000000
H    -3.007000000    -1.500000000     4.596000000
O    -0.460000000    -1.647000000     2.983000000
H    -1.096000000    -1.748000000     3.691000000
H    -0.976000000    -1.327000000     2.243000000
O    -6.524000000    -5.726000000     6.210000000
H    -6.311000000    -6.113000000     5.361000000
H    -6.179000000    -4.834000000     6.160000000
O    -5.548000000    -3.370000000     5.573000000
H    -5.369000000    -3.918000000     4.809000000
H    -5.588000000    -2.480000000     5.224000000
O    -6.305000000    -4.394000000     0.270000000
H    -6.932000000    -3.671000000     0.237000000
H    -5.449000000    -3.967000000     0.292000000
O    -1.812000000    -5.431000000     1.115000000
H    -2.682000000    -5.031000000     1.111000000
H    -1.688000000    -5.743000000     0.219000000
O    -4.472000000    -4.319000000     3.284000000
H    -3.717000000    -3.880000000     3.675000000
H    -4.433000000    -4.082000000     2.357000000
O    -8.098000000    -3.676000000    -2.737000000
H    -8.401000000    -3.981000000    -1.882000000
H    -7.763000000    -2.794000000    -2.571000000
O    -6.447000000    -6.012000000     3.296000000
H    -7.164000000    -5.533000000     2.880000000
H    -5.723000000    -5.387000000     3.317000000
O    -7.140000000    -0.522000000     2.474000000
H    -6.343000000    -0.932000000     2.138000000
H    -7.849000000    -0.940000000     1.985000000
O    -0.206000000    -4.810000000     3.121000000
H     0.080000000    -3.974000000     2.754000000
H    -0.891000000    -5.112000000     2.524000000
O    -4.976000000    -6.633000000    -0.152000000
H    -4.834000000    -6.638000000    -1.099000000
H    -5.582000000    -5.906000000    -0.005000000
O    -8.326000000    -2.143000000     0.550000000
H    -8.883000000    -2.873000000     0.819000000
H    -8.616000000    -1.935000000    -0.339000000
O    -8.364000000     0.788000000     4.790000000
H    -8.815000000     1.599000000     4.557000000
H    -8.055000000     0.437000000     3.954000000
O     0.967000000    -7.180000000     3.048000000
H     1.448000000    -7.146000000     2.221000000
H     0.501000000    -6.344000000     3.089000000
O    -7.237000000    -8.085000000     1.711000000
H    -7.940000000    -7.500000000     1.427000000
H    -6.599000000    -7.506000000     2.129000000
O    -9.584000000     1.030000000     1.256000000
H    -8.912000000     0.600000000     0.727000000
H   -10.316000000     1.163000000     0.653000000
O    -4.851000000    -1.141000000     4.233000000
H    -4.889000000    -1.508000000     3.350000000
H    -5.363000000    -0.334000000     4.179000000
