218
-1474.82544
C    -2.376000000     2.570000000     3.746000000
H    -2.733000000     3.107000000     2.871000000
C    -1.031000000     2.592000000     4.032000000
C    -0.635000000     1.908000000     5.172000000
H     0.411000000     1.875000000     5.465000000
C     0.086000000     3.184000000     3.106000000
O    -0.378000000     4.349000000     2.426000000
H     0.194000000     2.322000000     2.431000000
O     1.368000000     3.407000000     3.714000000
C     2.411000000     3.062000000     2.885000000
C     2.947000000     1.806000000     3.097000000
H     2.585000000     1.231000000     3.946000000
C     3.954000000     1.293000000     2.284000000
O     4.465000000    -0.004000000     2.542000000
C     4.351000000     1.977000000     1.106000000
C     5.349000000     1.361000000     0.081000000
H     5.866000000     2.080000000    -0.557000000
C     4.519000000     0.475000000    -0.848000000
C     4.276000000     0.922000000    -2.135000000
H     4.572000000     1.932000000    -2.406000000
H     6.061000000     0.780000000     0.671000000
C     3.786000000     3.247000000     0.901000000
H     4.169000000     3.846000000     0.079000000
C     2.813000000     3.743000000     1.766000000
C     2.181000000     5.052000000     1.487000000
H     2.837000000     5.727000000     0.934000000
H     1.928000000     5.609000000     2.392000000
C     1.006000000     4.799000000     0.552000000
C     1.095000000     4.821000000    -0.892000000
H     2.023000000     5.266000000    -1.243000000
C    -0.192000000     4.286000000     1.072000000
C    -1.382000000     4.080000000     0.243000000
H    -2.367000000     3.863000000     0.648000000
C    -1.215000000     4.111000000    -1.152000000
O    -2.343000000     3.791000000    -1.876000000
C    -2.421000000     2.547000000    -2.460000000
C    -3.738000000     1.850000000    -2.285000000
C    -4.101000000     0.741000000    -3.068000000
H    -3.395000000     0.307000000    -3.773000000
C    -4.676000000     2.361000000    -1.253000000
H    -4.475000000     3.234000000    -0.637000000
O    -1.995000000     2.637000000    -3.829000000
H    -1.744000000     1.911000000    -1.871000000
C     0.014000000     4.396000000    -1.734000000
C     0.217000000     4.511000000    -3.227000000
H     1.046000000     5.205000000    -3.377000000
H    -0.677000000     4.948000000    -3.677000000
C     0.413000000     3.091000000    -3.758000000
C     1.671000000     2.568000000    -3.879000000
H     2.559000000     3.182000000    -3.758000000
C    -0.646000000     2.259000000    -4.011000000
C    -0.453000000     0.921000000    -4.448000000
H    -1.310000000     0.271000000    -4.603000000
C     0.844000000     0.418000000    -4.632000000
O     1.018000000    -0.937000000    -4.919000000
C     1.317000000    -1.834000000    -3.837000000
C     0.612000000    -3.167000000    -3.921000000
C    -0.660000000    -3.196000000    -4.541000000
H    -1.032000000    -2.357000000    -5.122000000
C     1.006000000    -4.234000000    -3.122000000
H     1.926000000    -4.177000000    -2.545000000
O     2.694000000    -2.024000000    -3.695000000
H     0.923000000    -1.305000000    -2.956000000
C     1.884000000     1.274000000    -4.421000000
C     3.349000000     0.735000000    -4.495000000
H     4.084000000     1.525000000    -4.667000000
H     3.451000000    -0.004000000    -5.293000000
C     3.634000000     0.155000000    -3.109000000
C     3.257000000    -1.201000000    -2.796000000
C     3.544000000    -1.635000000    -1.514000000
H     3.371000000    -2.681000000    -1.273000000
C     4.234000000    -0.853000000    -0.560000000
O     4.647000000    -1.424000000     0.623000000
C     3.779000000    -1.029000000     1.754000000
H     2.972000000    -0.469000000     1.259000000
C     3.291000000    -2.232000000     2.496000000
C     2.507000000    -2.029000000     3.661000000
H     2.339000000    -1.009000000     3.997000000
C     3.527000000    -3.570000000     2.039000000
H     4.251000000    -3.820000000     1.269000000
C     2.824000000    -4.646000000     2.665000000
O     2.938000000    -5.962000000     2.191000000
C     2.310000000    -4.419000000     3.928000000
H     2.049000000    -5.299000000     4.510000000
C     2.136000000    -3.168000000     4.414000000
O     1.495000000    -3.203000000     5.638000000
C     1.458000000    -2.035000000     6.354000000
C     0.215000000    -1.354000000     6.321000000
H    -0.557000000    -1.723000000     5.650000000
C     2.483000000    -1.702000000     7.238000000
H     3.386000000    -2.306000000     7.216000000
C     2.367000000    -0.533000000     7.994000000
H     3.179000000    -0.082000000     8.560000000
C     1.127000000     0.077000000     8.027000000
H     1.047000000     1.033000000     8.537000000
C     0.054000000    -0.303000000     7.210000000
O    -1.069000000     0.465000000     7.109000000
C    -1.511000000     1.096000000     5.942000000
C    -2.864000000     1.232000000     5.737000000
H    -3.495000000     0.664000000     6.416000000
C    -3.302000000     1.963000000     4.649000000
O    -4.645000000     1.941000000     4.331000000
C    -5.229000000     2.576000000     3.239000000
C    -5.798000000     1.886000000     2.148000000
H    -5.792000000     0.800000000     2.149000000
C    -5.265000000     4.000000000     3.312000000
H    -4.903000000     4.491000000     4.211000000
C    -5.912000000     4.718000000     2.306000000
H    -5.933000000     5.804000000     2.295000000
C    -6.427000000     4.033000000     1.180000000
H    -6.944000000     4.615000000     0.420000000
C    -6.375000000     2.609000000     1.120000000
O    -6.816000000     2.021000000    -0.090000000
C    -5.918000000     1.796000000    -1.116000000
C    -6.161000000     0.645000000    -1.811000000
H    -7.081000000     0.151000000    -1.506000000
C    -5.351000000     0.166000000    -2.842000000
O    -5.606000000    -1.047000000    -3.438000000
C    -4.988000000    -1.649000000    -4.530000000
C    -4.167000000    -2.761000000    -4.240000000
H    -3.937000000    -3.016000000    -3.208000000
C    -5.242000000    -1.161000000    -5.803000000
H    -5.919000000    -0.316000000    -5.907000000
C    -4.549000000    -1.799000000    -6.845000000
H    -4.674000000    -1.332000000    -7.818000000
C    -3.744000000    -2.940000000    -6.594000000
H    -3.289000000    -3.476000000    -7.423000000
C    -3.494000000    -3.364000000    -5.282000000
O    -2.629000000    -4.441000000    -5.022000000
C    -1.415000000    -4.349000000    -4.352000000
C    -0.974000000    -5.457000000    -3.595000000
H    -1.537000000    -6.381000000    -3.486000000
C     0.191000000    -5.370000000    -2.949000000
O     0.471000000    -6.305000000    -1.977000000
C     1.651000000    -6.417000000    -1.194000000
C     2.793000000    -7.008000000    -1.836000000
H     2.781000000    -7.221000000    -2.902000000
C     3.866000000    -7.258000000    -1.021000000
H     4.710000000    -7.758000000    -1.491000000
C     4.022000000    -6.745000000     0.248000000
H     4.952000000    -6.832000000     0.805000000
C     2.903000000    -6.166000000     0.880000000
C     1.672000000    -6.097000000     0.165000000
H     0.792000000    -5.658000000     0.628000000
C    -1.345000000    -2.375000000    -1.031000000
H    -1.720000000    -2.785000000    -1.965000000
C    -0.874000000    -1.060000000    -1.003000000
H    -1.063000000    -0.411000000    -1.854000000
C    -0.110000000    -0.667000000     0.117000000
C     0.480000000     0.786000000     0.073000000
H    -0.359000000     1.483000000     0.035000000
H     0.984000000     0.977000000     1.022000000
H     1.065000000     0.814000000    -0.849000000
C     0.087000000    -1.479000000     1.237000000
H     0.675000000    -1.067000000     2.053000000
C    -0.487000000    -2.756000000     1.217000000
H    -0.420000000    -3.325000000     2.141000000
C    -1.144000000    -3.229000000     0.058000000
C    -1.720000000    -4.663000000     0.003000000
O    -1.758000000    -5.323000000     1.049000000
O    -2.520000000    -4.922000000    -0.859000000
O    -3.935000000    -3.539000000     2.552000000
H    -4.308000000    -2.749000000     2.160000000
H    -3.513000000    -3.992000000     1.821000000
O    -4.218000000   -10.631000000     0.414000000
H    -5.066000000   -10.781000000    -0.003000000
H    -3.716000000   -10.137000000    -0.234000000
O    -1.740000000    -7.968000000     0.983000000
H    -1.715000000    -7.012000000     1.015000000
H    -1.708000000    -8.177000000     0.050000000
O    -2.221000000    -3.907000000     4.737000000
H    -2.879000000    -3.812000000     4.049000000
H    -1.443000000    -4.229000000     4.281000000
O    -3.683000000    -7.086000000    -1.982000000
H    -3.301000000    -6.264000000    -1.674000000
H    -4.503000000    -7.167000000    -1.495000000
O     1.020000000    -8.328000000     4.617000000
H     1.258000000    -9.185000000     4.262000000
H     0.120000000    -8.189000000     4.322000000
O    -1.578000000    -8.156000000     4.228000000
H    -2.492000000    -8.356000000     4.427000000
H    -1.618000000    -7.368000000     3.687000000
O    -5.144000000    -5.903000000     3.342000000
H    -4.551000000    -5.172000000     3.167000000
H    -4.977000000    -6.522000000     2.631000000
O    -0.566000000    -5.755000000     3.319000000
H    -0.865000000    -5.686000000     2.412000000
H     0.381000000    -5.622000000     3.269000000
O    -5.881000000    -8.606000000    -0.980000000
H    -6.119000000    -8.711000000    -1.901000000
H    -6.693000000    -8.333000000    -0.553000000
O    -6.527000000    -5.517000000    -0.520000000
H    -7.245000000    -6.148000000    -0.460000000
H    -5.744000000    -6.023000000    -0.305000000
O    -4.983000000    -3.280000000    -0.998000000
H    -4.096000000    -3.601000000    -1.159000000
H    -5.496000000    -4.070000000    -0.826000000
O    -2.338000000    -9.455000000    -1.441000000
H    -1.584000000    -9.311000000    -2.014000000
H    -2.889000000    -8.684000000    -1.573000000
O    -8.130000000    -3.453000000    -1.058000000
H    -8.320000000    -3.862000000    -1.902000000
H    -7.480000000    -4.028000000    -0.654000000
O    -0.344000000    -9.175000000    -3.361000000
H    -0.104000000    -8.353000000    -3.790000000
H     0.463000000    -9.690000000    -3.361000000
O    -7.329000000    -1.760000000     1.808000000
H    -7.453000000    -2.708000000     1.832000000
H    -6.435000000    -1.644000000     1.484000000
O    -5.755000000    -6.204000000    -3.593000000
H    -6.083000000    -7.038000000    -3.929000000
H    -4.877000000    -6.405000000    -3.269000000
O    -4.230000000    -6.706000000     0.918000000
H    -3.410000000    -6.241000000     0.752000000
H    -3.994000000    -7.632000000     0.875000000
O    -4.692000000    -1.251000000     0.880000000
H    -5.017000000    -1.597000000     0.048000000
H    -3.748000000    -1.166000000     0.751000000
