218
-1443.53491
C    -3.547000000     2.717000000     3.309000000
H    -3.729000000     3.585000000     2.681000000
C    -2.329000000     2.493000000     3.860000000
C    -2.107000000     1.557000000     4.864000000
H    -1.118000000     1.351000000     5.267000000
C    -1.130000000     3.067000000     3.194000000
O    -1.359000000     4.364000000     2.563000000
H    -0.851000000     2.511000000     2.287000000
O     0.061000000     3.123000000     3.993000000
C     1.174000000     2.726000000     3.418000000
C     1.672000000     1.482000000     3.765000000
H     1.125000000     0.804000000     4.415000000
C     2.802000000     0.987000000     3.103000000
O     3.145000000    -0.361000000     3.445000000
C     3.628000000     1.795000000     2.391000000
C     5.028000000     1.341000000     1.944000000
H     5.561000000     2.289000000     1.847000000
C     5.004000000     0.563000000     0.636000000
C     4.970000000     1.190000000    -0.606000000
H     5.190000000     2.254000000    -0.636000000
H     5.551000000     0.797000000     2.733000000
C     3.152000000     3.041000000     2.113000000
H     3.649000000     3.677000000     1.386000000
C     1.952000000     3.555000000     2.656000000
C     1.508000000     5.021000000     2.370000000
H     2.428000000     5.478000000     1.998000000
H     1.101000000     5.674000000     3.145000000
C     0.556000000     4.917000000     1.144000000
C     1.033000000     4.993000000    -0.197000000
H     2.078000000     5.260000000    -0.333000000
C    -0.824000000     4.695000000     1.312000000
C    -1.651000000     4.475000000     0.159000000
H    -2.712000000     4.328000000     0.342000000
C    -1.143000000     4.472000000    -1.138000000
O    -1.971000000     4.147000000    -2.212000000
C    -1.808000000     2.851000000    -2.814000000
C    -3.154000000     2.094000000    -3.023000000
C    -3.307000000     1.166000000    -4.095000000
H    -2.549000000     1.075000000    -4.870000000
C    -4.184000000     2.279000000    -2.179000000
H    -4.146000000     2.969000000    -1.340000000
O    -0.952000000     2.872000000    -3.948000000
H    -1.274000000     2.268000000    -2.050000000
C     0.214000000     4.749000000    -1.291000000
C     0.837000000     4.745000000    -2.652000000
H     1.639000000     5.486000000    -2.658000000
H     0.054000000     5.164000000    -3.286000000
C     1.237000000     3.415000000    -3.097000000
C     2.521000000     2.987000000    -2.865000000
H     3.193000000     3.669000000    -2.351000000
C     0.332000000     2.535000000    -3.783000000
C     0.784000000     1.308000000    -4.194000000
H     0.061000000     0.616000000    -4.618000000
C     2.095000000     0.955000000    -4.032000000
O     2.500000000    -0.351000000    -4.219000000
C     2.556000000    -1.294000000    -3.233000000
C     1.895000000    -2.601000000    -3.537000000
C     0.764000000    -2.687000000    -4.286000000
H     0.313000000    -1.800000000    -4.722000000
C     2.458000000    -3.762000000    -3.006000000
H     3.348000000    -3.696000000    -2.386000000
O     3.942000000    -1.428000000    -2.808000000
H     1.991000000    -0.853000000    -2.398000000
C     3.022000000     1.795000000    -3.401000000
C     4.424000000     1.433000000    -3.117000000
H     5.156000000     2.238000000    -3.209000000
H     4.683000000     0.786000000    -3.957000000
C     4.658000000     0.601000000    -1.779000000
C     4.326000000    -0.734000000    -1.710000000
C     4.377000000    -1.433000000    -0.561000000
H     4.221000000    -2.503000000    -0.676000000
C     4.674000000    -0.761000000     0.663000000
O     4.359000000    -1.516000000     1.763000000
C     3.050000000    -1.401000000     2.413000000
H     2.329000000    -1.045000000     1.663000000
C     2.524000000    -2.737000000     2.947000000
C     1.625000000    -2.706000000     4.048000000
H     1.569000000    -1.738000000     4.539000000
C     2.639000000    -3.951000000     2.208000000
H     3.146000000    -4.123000000     1.262000000
C     1.989000000    -5.069000000     2.716000000
O     1.941000000    -6.258000000     2.038000000
C     1.107000000    -5.081000000     3.852000000
H     0.479000000    -5.926000000     4.123000000
C     0.916000000    -3.832000000     4.570000000
O     0.037000000    -3.814000000     5.579000000
C    -0.286000000    -2.627000000     6.219000000
C    -1.524000000    -2.076000000     5.859000000
H    -2.166000000    -2.576000000     5.138000000
C     0.555000000    -1.909000000     7.097000000
H     1.498000000    -2.373000000     7.376000000
C     0.129000000    -0.767000000     7.698000000
H     0.725000000    -0.153000000     8.368000000
C    -1.080000000    -0.193000000     7.244000000
H    -1.483000000     0.767000000     7.556000000
C    -1.915000000    -0.928000000     6.459000000
O    -3.045000000    -0.387000000     6.048000000
C    -3.187000000     0.853000000     5.323000000
C    -4.393000000     0.988000000     4.683000000
H    -5.180000000     0.246000000     4.791000000
C    -4.602000000     1.948000000     3.731000000
O    -5.805000000     2.009000000     3.227000000
C    -6.191000000     2.532000000     1.994000000
C    -6.016000000     1.829000000     0.867000000
H    -5.483000000     0.882000000     0.875000000
C    -6.845000000     3.751000000     1.964000000
H    -7.036000000     4.219000000     2.926000000
C    -7.387000000     4.274000000     0.836000000
H    -8.063000000     5.125000000     0.792000000
C    -7.178000000     3.522000000    -0.347000000
H    -7.706000000     3.895000000    -1.221000000
C    -6.552000000     2.278000000    -0.331000000
O    -6.456000000     1.544000000    -1.526000000
C    -5.342000000     1.467000000    -2.290000000
C    -5.452000000     0.586000000    -3.351000000
H    -6.254000000    -0.141000000    -3.453000000
C    -4.389000000     0.340000000    -4.152000000
O    -4.478000000    -0.683000000    -5.140000000
C    -3.413000000    -1.315000000    -5.793000000
C    -2.772000000    -2.359000000    -5.134000000
H    -3.206000000    -2.655000000    -4.182000000
C    -3.051000000    -0.919000000    -7.110000000
H    -3.651000000    -0.191000000    -7.650000000
C    -1.963000000    -1.582000000    -7.655000000
H    -1.694000000    -1.297000000    -8.669000000
C    -1.267000000    -2.633000000    -7.010000000
H    -0.400000000    -3.144000000    -7.422000000
C    -1.734000000    -3.028000000    -5.777000000
O    -1.058000000    -4.036000000    -5.183000000
C     0.123000000    -3.907000000    -4.528000000
C     0.746000000    -5.067000000    -4.062000000
H     0.270000000    -6.028000000    -4.241000000
C     1.862000000    -5.000000000    -3.229000000
O     2.386000000    -6.172000000    -2.768000000
C     2.829000000    -6.487000000    -1.517000000
C     3.942000000    -7.315000000    -1.342000000
H     4.414000000    -7.609000000    -2.276000000
C     4.467000000    -7.650000000    -0.124000000
H     5.286000000    -8.363000000    -0.096000000
C     3.779000000    -7.278000000     0.972000000
H     4.099000000    -7.627000000     1.951000000
C     2.666000000    -6.440000000     0.886000000
C     2.175000000    -6.040000000    -0.332000000
H     1.268000000    -5.450000000    -0.436000000
C    -0.782000000    -2.635000000    -1.105000000
H    -0.913000000    -3.239000000    -1.999000000
C    -0.424000000    -1.335000000    -1.240000000
H    -0.341000000    -0.935000000    -2.247000000
C    -0.277000000    -0.523000000    -0.102000000
C     0.019000000     0.976000000    -0.196000000
H     0.491000000     1.226000000    -1.148000000
H    -0.912000000     1.540000000    -0.118000000
H     0.751000000     1.299000000     0.547000000
C    -0.496000000    -1.077000000     1.134000000
H    -0.430000000    -0.455000000     2.024000000
C    -0.854000000    -2.437000000     1.263000000
H    -1.008000000    -2.856000000     2.254000000
C    -0.976000000    -3.222000000     0.126000000
C    -1.256000000    -4.725000000     0.214000000
O    -1.619000000    -5.284000000     1.251000000
O    -1.509000000    -5.384000000    -0.820000000
O    -2.977000000    -4.877000000     3.570000000
H    -2.221000000    -5.098000000     3.025000000
H    -3.701000000    -4.789000000     2.951000000
O    -6.106000000    -7.556000000    -3.437000000
H    -6.547000000    -7.124000000    -4.168000000
H    -5.174000000    -7.398000000    -3.593000000
O     2.275000000    -9.361000000     2.710000000
H     2.110000000   -10.146000000     3.232000000
H     2.177000000    -8.637000000     3.328000000
O    -2.411000000    -9.877000000    -2.585000000
H    -1.541000000    -9.556000000    -2.349000000
H    -2.963000000    -9.095000000    -2.585000000
O    -4.044000000    -5.368000000     6.197000000
H    -3.651000000    -5.131000000     5.357000000
H    -3.843000000    -6.298000000     6.302000000
O    -0.770000000    -7.586000000    -1.766000000
H    -0.882000000    -6.693000000    -1.441000000
H     0.069000000    -7.870000000    -1.405000000
O    -5.758000000    -3.248000000     4.455000000
H    -5.080000000    -3.690000000     4.966000000
H    -5.576000000    -3.498000000     3.549000000
O    -0.249000000    -8.825000000     4.374000000
H    -0.494000000    -9.741000000     4.238000000
H    -0.548000000    -8.377000000     3.583000000
O     0.910000000    -9.338000000     0.258000000
H     0.049000000    -9.152000000     0.632000000
H     1.484000000    -9.436000000     1.018000000
O    -3.250000000   -10.388000000     0.378000000
H    -4.123000000   -10.781000000     0.360000000
H    -3.413000000    -9.445000000     0.406000000
O    -3.408000000    -7.981000000     5.617000000
H    -2.521000000    -7.623000000     5.650000000
H    -3.398000000    -8.578000000     4.869000000
O    -0.635000000    -7.464000000     1.946000000
H    -1.140000000    -6.707000000     1.650000000
H     0.227000000    -7.107000000     2.163000000
O    -4.800000000    -3.988000000     1.619000000
H    -4.903000000    -4.528000000     0.835000000
H    -4.113000000    -3.362000000     1.390000000
O    -3.671000000    -4.964000000    -2.489000000
H    -4.377000000    -5.524000000    -2.165000000
H    -2.882000000    -5.306000000    -2.067000000
O    -5.518000000    -6.186000000    -1.103000000
H    -6.025000000    -6.237000000    -0.293000000
H    -5.947000000    -6.807000000    -1.693000000
O    -2.639000000    -7.369000000    -3.882000000
H    -2.750000000    -6.514000000    -4.298000000
H    -1.935000000    -7.237000000    -3.247000000
O    -4.893000000    -7.706000000     2.706000000
H    -4.449000000    -8.509000000     2.979000000
H    -4.214000000    -7.195000000     2.266000000
O    -3.427000000    -7.303000000    -0.023000000
H    -2.663000000    -6.775000000    -0.256000000
H    -4.067000000    -7.113000000    -0.710000000
O    -6.198000000    -3.090000000    -1.610000000
H    -6.039000000    -2.678000000    -2.459000000
H    -5.768000000    -3.943000000    -1.673000000
