218
-1469.83836
C    -2.474000000     2.215000000     4.615000000
H    -2.828000000     3.042000000     4.003000000
C    -1.155000000     1.785000000     4.491000000
C    -0.710000000     0.709000000     5.220000000
H     0.311000000     0.369000000     5.066000000
C    -0.330000000     2.476000000     3.405000000
O    -0.809000000     3.813000000     3.224000000
H    -0.533000000     1.834000000     2.536000000
O     1.078000000     2.416000000     3.746000000
C     2.020000000     2.335000000     2.800000000
C     2.788000000     1.201000000     2.882000000
H     2.430000000     0.452000000     3.584000000
C     3.782000000     1.047000000     1.943000000
O     4.382000000    -0.155000000     1.950000000
C     4.171000000     2.073000000     1.068000000
C     5.194000000     1.772000000    -0.077000000
H     5.555000000     2.681000000    -0.563000000
C     4.674000000     0.972000000    -1.296000000
C     4.136000000     1.638000000    -2.416000000
H     3.948000000     2.707000000    -2.376000000
H     6.051000000     1.283000000     0.389000000
C     3.485000000     3.307000000     1.208000000
H     3.846000000     4.186000000     0.679000000
C     2.389000000     3.433000000     2.057000000
C     1.720000000     4.728000000     2.225000000
H     2.428000000     5.513000000     1.949000000
H     1.486000000     4.978000000     3.262000000
C     0.434000000     4.769000000     1.397000000
C     0.526000000     5.006000000     0.007000000
H     1.468000000     5.434000000    -0.325000000
C    -0.718000000     4.376000000     1.982000000
C    -1.882000000     4.240000000     1.258000000
H    -2.770000000     3.807000000     1.711000000
C    -1.763000000     4.269000000    -0.142000000
O    -2.844000000     3.857000000    -0.821000000
C    -2.747000000     2.583000000    -1.463000000
C    -4.010000000     1.782000000    -1.250000000
C    -4.356000000     0.831000000    -2.185000000
H    -3.770000000     0.721000000    -3.094000000
C    -4.735000000     1.834000000    -0.039000000
H    -4.424000000     2.519000000     0.746000000
O    -2.480000000     2.909000000    -2.876000000
H    -1.931000000     1.975000000    -1.046000000
C    -0.563000000     4.692000000    -0.841000000
C    -0.481000000     4.878000000    -2.346000000
H     0.335000000     5.583000000    -2.520000000
H    -1.425000000     5.252000000    -2.747000000
C    -0.138000000     3.589000000    -3.028000000
C     1.121000000     3.376000000    -3.502000000
H     1.937000000     4.094000000    -3.481000000
C    -1.142000000     2.658000000    -3.317000000
C    -0.845000000     1.426000000    -3.909000000
H    -1.625000000     0.723000000    -4.191000000
C     0.504000000     1.102000000    -4.188000000
O     0.840000000    -0.077000000    -4.746000000
C     1.388000000    -1.151000000    -3.976000000
C     0.680000000    -2.459000000    -4.193000000
C    -0.622000000    -2.590000000    -4.684000000
H    -1.167000000    -1.687000000    -4.944000000
C     1.380000000    -3.655000000    -3.953000000
H     2.443000000    -3.595000000    -3.734000000
O     2.783000000    -1.245000000    -4.269000000
H     1.240000000    -0.816000000    -2.938000000
C     1.469000000     2.110000000    -4.073000000
C     2.884000000     1.810000000    -4.528000000
H     3.447000000     2.746000000    -4.530000000
H     3.030000000     1.419000000    -5.537000000
C     3.558000000     0.978000000    -3.456000000
C     3.550000000    -0.467000000    -3.432000000
C     4.110000000    -1.165000000    -2.379000000
H     3.904000000    -2.214000000    -2.186000000
C     4.712000000    -0.453000000    -1.307000000
O     4.977000000    -1.184000000    -0.170000000
C     3.965000000    -1.059000000     0.927000000
H     3.029000000    -0.640000000     0.528000000
C     3.522000000    -2.387000000     1.426000000
C     2.874000000    -2.428000000     2.693000000
H     2.790000000    -1.518000000     3.283000000
C     3.644000000    -3.546000000     0.645000000
H     4.154000000    -3.524000000    -0.315000000
C     3.212000000    -4.757000000     1.133000000
O     3.767000000    -5.896000000     0.532000000
C     2.565000000    -4.817000000     2.388000000
H     2.129000000    -5.787000000     2.614000000
C     2.393000000    -3.666000000     3.158000000
O     1.786000000    -3.769000000     4.432000000
C     1.643000000    -2.799000000     5.411000000
C     0.389000000    -2.392000000     5.802000000
H    -0.516000000    -2.749000000     5.317000000
C     2.755000000    -2.374000000     6.174000000
H     3.706000000    -2.845000000     5.940000000
C     2.567000000    -1.418000000     7.154000000
H     3.364000000    -1.040000000     7.790000000
C     1.293000000    -0.898000000     7.450000000
H     1.137000000    -0.086000000     8.156000000
C     0.179000000    -1.453000000     6.817000000
O    -1.075000000    -0.830000000     7.064000000
C    -1.516000000     0.131000000     6.217000000
C    -2.817000000     0.626000000     6.374000000
H    -3.535000000     0.209000000     7.076000000
C    -3.309000000     1.629000000     5.583000000
O    -4.611000000     2.080000000     5.770000000
C    -5.425000000     2.167000000     4.644000000
C    -5.411000000     1.256000000     3.577000000
H    -4.726000000     0.411000000     3.557000000
C    -6.072000000     3.359000000     4.480000000
H    -6.166000000     4.145000000     5.225000000
C    -6.895000000     3.535000000     3.378000000
H    -7.579000000     4.370000000     3.252000000
C    -6.890000000     2.623000000     2.384000000
H    -7.321000000     2.906000000     1.427000000
C    -6.156000000     1.473000000     2.475000000
O    -6.080000000     0.540000000     1.465000000
C    -5.733000000     0.882000000     0.187000000
C    -6.023000000    -0.108000000    -0.754000000
H    -6.745000000    -0.864000000    -0.455000000
C    -5.374000000    -0.078000000    -1.941000000
O    -5.617000000    -1.135000000    -2.830000000
C    -4.941000000    -1.436000000    -4.050000000
C    -4.133000000    -2.520000000    -4.020000000
H    -4.039000000    -3.236000000    -3.208000000
C    -5.081000000    -0.676000000    -5.213000000
H    -5.560000000     0.289000000    -5.066000000
C    -4.397000000    -0.995000000    -6.353000000
H    -4.376000000    -0.376000000    -7.246000000
C    -3.466000000    -2.028000000    -6.272000000
H    -2.833000000    -2.128000000    -7.150000000
C    -3.341000000    -2.839000000    -5.160000000
O    -2.569000000    -3.962000000    -5.117000000
C    -1.254000000    -3.847000000    -4.848000000
C    -0.535000000    -4.977000000    -4.500000000
H    -1.072000000    -5.918000000    -4.413000000
C     0.786000000    -4.898000000    -4.111000000
O     1.532000000    -5.993000000    -3.745000000
C     2.710000000    -5.995000000    -3.001000000
C     3.969000000    -5.994000000    -3.627000000
H     4.041000000    -5.960000000    -4.711000000
C     5.107000000    -5.925000000    -2.798000000
H     6.093000000    -5.852000000    -3.249000000
C     4.949000000    -5.847000000    -1.434000000
H     5.844000000    -5.726000000    -0.829000000
C     3.725000000    -5.907000000    -0.842000000
C     2.607000000    -5.954000000    -1.649000000
H     1.588000000    -6.154000000    -1.328000000
C    -3.443000000    -2.558000000    -0.106000000
H    -4.527000000    -2.516000000    -0.043000000
C    -2.640000000    -1.544000000     0.382000000
H    -3.151000000    -0.650000000     0.730000000
C    -1.220000000    -1.628000000     0.292000000
C    -0.406000000    -0.430000000     0.730000000
H     0.640000000    -0.741000000     0.685000000
H    -0.588000000     0.345000000    -0.016000000
H    -0.693000000    -0.118000000     1.737000000
C    -0.623000000    -2.778000000    -0.166000000
H     0.463000000    -2.784000000    -0.131000000
C    -1.463000000    -3.888000000    -0.509000000
H    -0.975000000    -4.804000000    -0.832000000
C    -2.864000000    -3.756000000    -0.558000000
C    -3.789000000    -4.934000000    -0.909000000
O    -3.299000000    -5.941000000    -1.474000000
O    -5.000000000    -4.830000000    -0.917000000
O    -0.949000000    -6.916000000    -1.977000000
H    -1.821000000    -6.520000000    -1.969000000
H    -0.995000000    -7.608000000    -1.318000000
O    -3.609000000    -8.135000000    -0.159000000
H    -3.572000000    -7.218000000    -0.432000000
H    -4.183000000    -8.553000000    -0.801000000
O    -5.640000000    -2.522000000     3.137000000
H    -6.279000000    -1.874000000     3.432000000
H    -6.119000000    -3.061000000     2.507000000
O    -6.594000000    -3.437000000    -6.135000000
H    -6.239000000    -3.762000000    -5.308000000
H    -7.302000000    -2.847000000    -5.876000000
O    -3.631000000    -5.556000000     3.024000000
H    -3.484000000    -4.611000000     3.004000000
H    -2.754000000    -5.936000000     2.969000000
O    -2.953000000    -2.337000000     3.886000000
H    -3.809000000    -2.368000000     3.460000000
H    -2.557000000    -1.525000000     3.569000000
O    -0.894000000    -5.574000000     2.029000000
H    -0.783000000    -4.866000000     1.394000000
H    -0.556000000    -6.351000000     1.583000000
O    -8.489000000    -6.807000000     2.145000000
H    -8.521000000    -6.685000000     3.094000000
H    -7.641000000    -7.221000000     1.985000000
O    -9.341000000    -4.768000000    -2.797000000
H    -8.630000000    -4.198000000    -2.505000000
H    -9.571000000    -5.280000000    -2.022000000
O    -4.011000000    -7.518000000    -3.286000000
H    -3.490000000    -7.060000000    -2.626000000
H    -4.875000000    -7.108000000    -3.235000000
O    -6.434000000    -7.085000000    -0.832000000
H    -5.949000000    -6.268000000    -0.947000000
H    -6.086000000    -7.458000000    -0.022000000
O    -3.163000000    -9.625000000    -4.927000000
H    -2.663000000    -9.385000000    -5.706000000
H    -3.486000000    -8.793000000    -4.583000000
O    -7.105000000    -3.785000000    -1.959000000
H    -6.854000000    -2.895000000    -2.209000000
H    -6.294000000    -4.184000000    -1.646000000
O    -6.640000000    -6.919000000    -4.618000000
H    -6.054000000    -7.076000000    -5.358000000
H    -7.490000000    -6.737000000    -5.019000000
O    -6.454000000    -3.965000000     1.105000000
H    -7.263000000    -3.641000000     0.708000000
H    -5.879000000    -4.146000000     0.361000000
O    -5.552000000    -7.598000000     2.069000000
H    -4.943000000    -6.905000000     2.327000000
H    -5.196000000    -8.391000000     2.471000000
O    -9.133000000    -6.532000000    -0.524000000
H    -9.005000000    -6.475000000     0.423000000
H    -8.249000000    -6.613000000    -0.880000000
O    -2.051000000    -8.872000000     2.151000000
H    -2.683000000    -8.518000000     1.525000000
H    -2.096000000    -9.820000000     2.028000000
O    -6.308000000    -9.641000000    -2.038000000
H    -6.594000000    -9.275000000    -1.201000000
H    -6.598000000    -9.003000000    -2.690000000
