218
-1476.56055
C    -1.667000000     1.171000000     4.820000000
H    -2.223000000     2.005000000     4.401000000
C    -0.241000000     1.102000000     4.665000000
C     0.435000000     0.107000000     5.295000000
H     1.507000000     0.038000000     5.130000000
C     0.436000000     2.130000000     3.765000000
O    -0.246000000     3.421000000     3.781000000
H     0.293000000     1.687000000     2.769000000
O     1.867000000     2.364000000     4.065000000
C     2.664000000     2.302000000     3.017000000
C     3.362000000     1.112000000     2.716000000
H     3.169000000     0.222000000     3.310000000
C     4.083000000     0.931000000     1.558000000
O     4.656000000    -0.306000000     1.311000000
C     4.280000000     2.050000000     0.713000000
C     5.047000000     1.890000000    -0.556000000
H     5.459000000     2.835000000    -0.916000000
C     4.205000000     1.293000000    -1.737000000
C     3.705000000     2.173000000    -2.676000000
H     3.834000000     3.252000000    -2.691000000
H     5.915000000     1.267000000    -0.332000000
C     3.631000000     3.288000000     1.029000000
H     3.775000000     4.146000000     0.378000000
C     2.775000000     3.400000000     2.150000000
C     1.999000000     4.718000000     2.329000000
H     2.466000000     5.578000000     1.845000000
H     1.859000000     4.914000000     3.394000000
C     0.678000000     4.448000000     1.700000000
C     0.423000000     4.858000000     0.390000000
H     1.255000000     5.208000000    -0.215000000
C    -0.422000000     3.891000000     2.454000000
C    -1.678000000     3.785000000     1.849000000
H    -2.507000000     3.407000000     2.442000000
C    -1.880000000     4.211000000     0.513000000
O    -3.051000000     3.916000000    -0.004000000
C    -3.077000000     2.747000000    -0.813000000
C    -4.259000000     1.817000000    -0.422000000
C    -4.583000000     0.845000000    -1.384000000
H    -4.173000000     0.878000000    -2.390000000
C    -4.912000000     1.735000000     0.818000000
H    -4.746000000     2.522000000     1.549000000
O    -3.083000000     3.174000000    -2.247000000
H    -2.150000000     2.181000000    -0.640000000
C    -0.792000000     4.744000000    -0.206000000
C    -0.921000000     5.168000000    -1.633000000
H    -0.108000000     5.867000000    -1.842000000
H    -1.846000000     5.731000000    -1.772000000
C    -0.757000000     3.992000000    -2.536000000
C     0.432000000     3.756000000    -3.168000000
H     1.272000000     4.372000000    -2.859000000
C    -1.888000000     3.123000000    -2.902000000
C    -1.665000000     2.111000000    -3.824000000
H    -2.495000000     1.428000000    -3.988000000
C    -0.367000000     1.887000000    -4.359000000
O    -0.102000000     0.763000000    -5.033000000
C     0.630000000    -0.377000000    -4.460000000
C     0.039000000    -1.715000000    -4.717000000
C    -1.295000000    -1.724000000    -5.182000000
H    -1.854000000    -0.846000000    -5.497000000
C     0.604000000    -2.860000000    -4.284000000
H     1.638000000    -2.780000000    -3.958000000
O     2.001000000    -0.391000000    -4.780000000
H     0.533000000    -0.180000000    -3.382000000
C     0.661000000     2.786000000    -4.093000000
C     2.087000000     2.536000000    -4.559000000
H     2.592000000     3.482000000    -4.768000000
H     1.937000000     2.154000000    -5.571000000
C     2.913000000     1.611000000    -3.712000000
C     2.857000000     0.205000000    -3.883000000
C     3.435000000    -0.598000000    -2.991000000
H     3.204000000    -1.661000000    -2.982000000
C     4.057000000    -0.101000000    -1.837000000
O     4.622000000    -1.041000000    -0.981000000
C     4.056000000    -1.167000000     0.364000000
H     3.015000000    -0.832000000     0.244000000
C     3.973000000    -2.621000000     0.760000000
C     3.660000000    -2.894000000     2.061000000
H     3.683000000    -2.016000000     2.702000000
C     4.066000000    -3.648000000    -0.176000000
H     4.157000000    -3.478000000    -1.245000000
C     3.940000000    -4.916000000     0.338000000
O     4.078000000    -6.067000000    -0.487000000
C     3.610000000    -5.285000000     1.662000000
H     3.454000000    -6.331000000     1.914000000
C     3.476000000    -4.203000000     2.520000000
O     3.181000000    -4.422000000     3.828000000
C     3.092000000    -3.437000000     4.803000000
C     1.827000000    -3.150000000     5.289000000
H     0.936000000    -3.629000000     4.890000000
C     4.224000000    -2.821000000     5.290000000
H     5.171000000    -3.084000000     4.827000000
C     4.091000000    -1.862000000     6.318000000
H     4.989000000    -1.374000000     6.688000000
C     2.837000000    -1.564000000     6.835000000
H     2.637000000    -0.906000000     7.677000000
C     1.715000000    -2.189000000     6.324000000
O     0.429000000    -1.859000000     6.726000000
C    -0.229000000    -0.848000000     6.035000000
C    -1.607000000    -0.724000000     6.293000000
H    -2.119000000    -1.433000000     6.938000000
C    -2.320000000     0.214000000     5.631000000
O    -3.652000000     0.320000000     5.866000000
C    -4.599000000     1.103000000     5.197000000
C    -5.179000000     0.593000000     4.026000000
H    -4.769000000    -0.318000000     3.600000000
C    -4.924000000     2.366000000     5.654000000
H    -4.374000000     2.752000000     6.509000000
C    -5.923000000     3.170000000     5.056000000
H    -5.994000000     4.217000000     5.338000000
C    -6.516000000     2.640000000     3.878000000
H    -7.156000000     3.274000000     3.270000000
C    -6.162000000     1.383000000     3.397000000
O    -6.710000000     0.931000000     2.185000000
C    -5.945000000     0.883000000     1.000000000
C    -6.270000000    -0.047000000     0.047000000
H    -6.989000000    -0.842000000     0.231000000
C    -5.493000000    -0.149000000    -1.102000000
O    -5.999000000    -1.144000000    -1.966000000
C    -5.534000000    -1.166000000    -3.314000000
C    -4.608000000    -2.131000000    -3.651000000
H    -4.199000000    -2.741000000    -2.850000000
C    -6.132000000    -0.275000000    -4.220000000
H    -6.981000000     0.334000000    -3.922000000
C    -5.700000000    -0.371000000    -5.560000000
H    -6.112000000     0.391000000    -6.217000000
C    -4.702000000    -1.250000000    -5.913000000
H    -4.245000000    -1.265000000    -6.899000000
C    -4.180000000    -2.125000000    -4.966000000
O    -3.342000000    -3.107000000    -5.411000000
C    -1.992000000    -2.992000000    -5.037000000
C    -1.390000000    -4.135000000    -4.596000000
H    -1.861000000    -5.113000000    -4.649000000
C    -0.057000000    -4.070000000    -4.166000000
O     0.497000000    -5.264000000    -3.736000000
C     1.792000000    -5.541000000    -3.451000000
C     2.670000000    -5.847000000    -4.471000000
H     2.314000000    -5.837000000    -5.498000000
C     3.965000000    -6.243000000    -4.223000000
H     4.658000000    -6.453000000    -5.034000000
C     4.442000000    -6.307000000    -2.881000000
H     5.514000000    -6.408000000    -2.728000000
C     3.604000000    -5.992000000    -1.810000000
C     2.308000000    -5.513000000    -2.107000000
H     1.653000000    -5.352000000    -1.255000000
C    -1.964000000    -0.898000000     1.769000000
H    -2.779000000    -0.731000000     2.469000000
C    -1.332000000     0.158000000     1.151000000
H    -1.699000000     1.181000000     1.187000000
C    -0.250000000    -0.093000000     0.322000000
C     0.296000000     0.989000000    -0.541000000
H    -0.272000000     1.058000000    -1.471000000
H     0.323000000     1.960000000    -0.042000000
H     1.317000000     0.789000000    -0.872000000
C     0.191000000    -1.407000000     0.147000000
H     0.948000000    -1.602000000    -0.607000000
C    -0.454000000    -2.498000000     0.757000000
H    -0.130000000    -3.528000000     0.633000000
C    -1.583000000    -2.229000000     1.497000000
C    -2.425000000    -3.371000000     2.078000000
O    -1.917000000    -4.433000000     2.214000000
O    -3.625000000    -3.259000000     2.234000000
O    -0.185000000    -6.834000000     0.882000000
H    -1.030000000    -7.208000000     0.631000000
H    -0.385000000    -5.929000000     1.121000000
O    -4.719000000    -2.873000000     4.509000000
H    -5.262000000    -3.643000000     4.679000000
H    -4.275000000    -3.069000000     3.684000000
O    -7.447000000    -1.586000000     3.416000000
H    -7.830000000    -0.774000000     3.750000000
H    -6.767000000    -1.809000000     4.052000000
O    -6.242000000    -3.142000000     1.621000000
H    -6.392000000    -2.406000000     2.214000000
H    -5.293000000    -3.163000000     1.501000000
O    -0.852000000    -5.348000000     7.198000000
H    -1.376000000    -4.923000000     7.878000000
H    -1.471000000    -5.512000000     6.487000000
O    -1.357000000    -6.067000000     4.367000000
H    -2.249000000    -6.414000000     4.331000000
H    -1.290000000    -5.501000000     3.597000000
O    -6.785000000    -4.607000000     5.226000000
H    -7.223000000    -4.670000000     4.377000000
H    -6.949000000    -5.453000000     5.642000000
O    -3.234000000    -6.324000000     0.805000000
H    -3.426000000    -6.999000000     1.455000000
H    -3.071000000    -5.534000000     1.320000000
O    -5.645000000    -9.066000000    -0.094000000
H    -5.534000000    -8.670000000     0.770000000
H    -4.871000000    -9.618000000    -0.206000000
O     1.038000000    -6.574000000     5.790000000
H     0.555000000    -6.363000000     6.589000000
H     0.465000000    -6.283000000     5.080000000
O    -3.021000000    -4.275000000     8.592000000
H    -3.235000000    -5.206000000     8.527000000
H    -3.683000000    -3.840000000     8.055000000
O    -5.564000000    -5.581000000    -3.029000000
H    -5.779000000    -5.285000000    -2.144000000
H    -5.612000000    -6.536000000    -2.980000000
O    -6.506000000    -4.357000000    -0.835000000
H    -6.376000000    -4.022000000     0.052000000
H    -7.429000000    -4.611000000    -0.862000000
O    -1.966000000    -6.428000000    -1.800000000
H    -2.335000000    -6.384000000    -0.918000000
H    -1.823000000    -5.514000000    -2.045000000
O    -4.532000000    -7.870000000     5.639000000
H    -4.760000000    -8.537000000     4.991000000
H    -4.448000000    -7.062000000     5.132000000
O    -4.558000000    -6.320000000     3.570000000
H    -5.391000000    -6.535000000     3.150000000
H    -4.396000000    -5.409000000     3.327000000
O    -8.465000000    -4.425000000     2.033000000
H    -7.575000000    -4.095000000     1.913000000
H    -9.021000000    -3.651000000     1.944000000
O    -7.121000000    -6.962000000     2.629000000
H    -7.750000000    -6.242000000     2.685000000
H    -7.623000000    -7.738000000     2.877000000
O    -4.587000000    -2.705000000     7.239000000
H    -5.087000000    -1.889000000     7.252000000
H    -4.340000000    -2.820000000     6.322000000
