218
-1445.38023
C    -2.297000000     2.000000000     4.391000000
H    -2.565000000     2.982000000     4.009000000
C    -0.909000000     1.718000000     4.253000000
C    -0.492000000     0.461000000     4.647000000
H     0.536000000     0.161000000     4.462000000
C     0.150000000     2.544000000     3.481000000
O    -0.460000000     3.868000000     3.188000000
H     0.330000000     2.052000000     2.513000000
O     1.523000000     2.587000000     4.066000000
C     2.513000000     2.315000000     3.137000000
C     3.153000000     1.089000000     3.144000000
H     2.849000000     0.416000000     3.941000000
C     4.058000000     0.736000000     2.217000000
O     4.482000000    -0.593000000     2.200000000
C     4.416000000     1.640000000     1.202000000
C     5.480000000     1.279000000     0.209000000
H     5.963000000     2.215000000    -0.077000000
C     4.779000000     0.592000000    -1.011000000
C     4.414000000     1.357000000    -2.129000000
H     4.639000000     2.419000000    -2.192000000
H     6.186000000     0.627000000     0.729000000
C     3.780000000     2.883000000     1.196000000
H     4.061000000     3.570000000     0.402000000
C     2.880000000     3.230000000     2.148000000
C     2.166000000     4.642000000     2.243000000
H     2.915000000     5.306000000     1.807000000
H     1.945000000     4.889000000     3.284000000
C     0.927000000     4.684000000     1.402000000
C     1.106000000     4.905000000     0.058000000
H     2.058000000     5.095000000    -0.431000000
C    -0.317000000     4.464000000     1.922000000
C    -1.426000000     4.357000000     1.101000000
H    -2.418000000     4.128000000     1.482000000
C    -1.309000000     4.549000000    -0.259000000
O    -2.405000000     4.218000000    -1.097000000
C    -2.521000000     2.944000000    -1.718000000
C    -3.908000000     2.338000000    -1.588000000
C    -4.513000000     1.711000000    -2.697000000
H    -3.854000000     1.590000000    -3.553000000
C    -4.680000000     2.392000000    -0.416000000
H    -4.151000000     2.933000000     0.364000000
O    -2.111000000     3.170000000    -3.078000000
H    -1.871000000     2.223000000    -1.200000000
C    -0.021000000     4.890000000    -0.797000000
C     0.096000000     5.030000000    -2.340000000
H     0.925000000     5.696000000    -2.589000000
H    -0.792000000     5.497000000    -2.770000000
C     0.285000000     3.678000000    -3.057000000
C     1.618000000     3.223000000    -3.261000000
H     2.517000000     3.733000000    -2.924000000
C    -0.799000000     2.855000000    -3.382000000
C    -0.540000000     1.689000000    -4.082000000
H    -1.395000000     1.059000000    -4.313000000
C     0.761000000     1.316000000    -4.419000000
O     0.879000000     0.054000000    -4.973000000
C     1.280000000    -0.944000000    -3.967000000
C     0.357000000    -2.168000000    -3.931000000
C    -1.083000000    -2.087000000    -3.966000000
H    -1.516000000    -1.093000000    -4.030000000
C     0.942000000    -3.462000000    -3.990000000
H     2.019000000    -3.606000000    -4.013000000
O     2.670000000    -1.323000000    -3.987000000
H     1.100000000    -0.441000000    -3.005000000
C     1.878000000     2.027000000    -3.954000000
C     3.283000000     1.555000000    -4.283000000
H     3.905000000     2.441000000    -4.421000000
H     3.306000000     0.970000000    -5.205000000
C     3.737000000     0.688000000    -3.185000000
C     3.410000000    -0.657000000    -3.056000000
C     3.812000000    -1.460000000    -2.066000000
H     3.435000000    -2.479000000    -2.040000000
C     4.393000000    -0.805000000    -0.966000000
O     4.639000000    -1.601000000     0.130000000
C     3.847000000    -1.538000000     1.286000000
H     2.850000000    -1.181000000     0.987000000
C     3.553000000    -2.843000000     1.871000000
C     3.452000000    -3.053000000     3.267000000
H     3.517000000    -2.121000000     3.823000000
C     3.409000000    -3.894000000     0.953000000
H     3.495000000    -3.786000000    -0.126000000
C     3.128000000    -5.141000000     1.470000000
O     2.916000000    -6.229000000     0.642000000
C     3.021000000    -5.353000000     2.883000000
H     2.713000000    -6.341000000     3.217000000
C     3.216000000    -4.301000000     3.811000000
O     3.024000000    -4.449000000     5.140000000
C     2.167000000    -3.554000000     5.740000000
C     0.923000000    -3.086000000     5.161000000
H     0.618000000    -3.422000000     4.173000000
C     2.581000000    -2.949000000     6.923000000
H     3.575000000    -3.126000000     7.325000000
C     1.701000000    -2.126000000     7.622000000
H     1.987000000    -1.626000000     8.544000000
C     0.511000000    -1.689000000     7.050000000
H    -0.202000000    -1.022000000     7.526000000
C     0.162000000    -2.192000000     5.828000000
O    -1.051000000    -1.752000000     5.339000000
C    -1.426000000    -0.420000000     5.162000000
C    -2.749000000    -0.096000000     5.391000000
H    -3.385000000    -0.870000000     5.812000000
C    -3.204000000     1.078000000     4.926000000
O    -4.572000000     1.326000000     5.117000000
C    -5.245000000     2.093000000     4.210000000
C    -5.716000000     1.523000000     3.021000000
H    -5.481000000     0.474000000     2.862000000
C    -5.546000000     3.440000000     4.440000000
H    -5.334000000     3.812000000     5.439000000
C    -6.166000000     4.219000000     3.490000000
H    -6.142000000     5.272000000     3.759000000
C    -6.510000000     3.643000000     2.271000000
H    -6.881000000     4.286000000     1.477000000
C    -6.235000000     2.329000000     2.032000000
O    -6.598000000     1.710000000     0.842000000
C    -5.917000000     1.716000000    -0.331000000
C    -6.531000000     1.122000000    -1.451000000
H    -7.448000000     0.552000000    -1.327000000
C    -5.784000000     1.060000000    -2.551000000
O    -6.317000000     0.325000000    -3.645000000
C    -5.513000000    -0.459000000    -4.440000000
C    -4.751000000    -1.523000000    -3.872000000
H    -4.677000000    -1.647000000    -2.795000000
C    -5.377000000    -0.134000000    -5.766000000
H    -6.019000000     0.677000000    -6.100000000
C    -4.582000000    -0.907000000    -6.594000000
H    -4.473000000    -0.585000000    -7.627000000
C    -3.958000000    -2.033000000    -6.113000000
H    -3.480000000    -2.764000000    -6.760000000
C    -4.005000000    -2.282000000    -4.737000000
O    -3.222000000    -3.216000000    -4.151000000
C    -1.849000000    -3.232000000    -4.125000000
C    -1.239000000    -4.475000000    -3.988000000
H    -1.896000000    -5.341000000    -3.982000000
C     0.124000000    -4.593000000    -3.797000000
O     0.709000000    -5.822000000    -3.558000000
C     1.859000000    -5.820000000    -2.761000000
C     3.074000000    -5.826000000    -3.462000000
H     2.988000000    -5.722000000    -4.541000000
C     4.259000000    -6.119000000    -2.756000000
H     5.217000000    -6.166000000    -3.268000000
C     4.141000000    -6.284000000    -1.375000000
H     5.010000000    -6.530000000    -0.770000000
C     2.912000000    -6.090000000    -0.713000000
C     1.747000000    -5.989000000    -1.403000000
H     0.805000000    -5.867000000    -0.873000000
C    -2.074000000    -0.657000000     1.337000000
H    -2.997000000    -0.433000000     1.866000000
C    -1.197000000     0.356000000     0.911000000
H    -1.459000000     1.368000000     1.210000000
C    -0.083000000     0.026000000     0.138000000
C     0.847000000     1.095000000    -0.380000000
H     1.879000000     0.753000000    -0.493000000
H     0.564000000     1.201000000    -1.429000000
H     0.828000000     2.020000000     0.199000000
C     0.174000000    -1.273000000    -0.257000000
H     1.040000000    -1.432000000    -0.895000000
C    -0.661000000    -2.326000000     0.227000000
H    -0.355000000    -3.350000000     0.026000000
C    -1.857000000    -1.987000000     0.994000000
C    -2.866000000    -3.094000000     1.204000000
O    -2.716000000    -4.128000000     0.586000000
O    -3.744000000    -2.907000000     2.005000000
O    -0.753000000    -5.692000000     2.268000000
H    -0.151000000    -5.351000000     1.607000000
H    -1.624000000    -5.510000000     1.914000000
O    -8.905000000    -2.293000000     1.652000000
H    -8.934000000    -1.808000000     0.827000000
H    -9.642000000    -1.950000000     2.158000000
O    -5.573000000    -9.020000000     0.921000000
H    -5.577000000    -9.868000000     1.365000000
H    -5.394000000    -8.387000000     1.616000000
O    -3.024000000    -3.755000000     4.726000000
H    -3.331000000    -3.518000000     3.851000000
H    -2.340000000    -3.114000000     4.921000000
O    -5.258000000    -2.744000000     7.345000000
H    -5.338000000    -1.906000000     7.800000000
H    -4.330000000    -2.969000000     7.417000000
O    -1.643000000    -9.425000000     1.900000000
H    -1.990000000    -8.546000000     1.748000000
H    -1.714000000    -9.551000000     2.846000000
O    -5.750000000    -4.767000000     5.415000000
H    -5.777000000    -4.028000000     6.023000000
H    -4.953000000    -4.627000000     4.903000000
O    -1.497000000    -6.337000000     6.514000000
H    -1.930000000    -5.720000000     5.923000000
H    -0.982000000    -5.784000000     7.102000000
O    -8.444000000    -5.258000000     2.562000000
H    -7.491000000    -5.343000000     2.604000000
H    -8.608000000    -4.325000000     2.700000000
O    -5.357000000    -4.969000000     1.990000000
H    -5.587000000    -4.942000000     1.061000000
H    -4.726000000    -4.258000000     2.101000000
O    -5.815000000    -7.341000000     3.436000000
H    -5.171000000    -6.723000000     3.090000000
H    -5.596000000    -7.420000000     4.365000000
O    -1.036000000    -8.424000000    -2.004000000
H    -1.359000000    -7.560000000    -1.746000000
H    -1.827000000    -8.947000000    -2.130000000
O    -6.130000000    -5.882000000    -1.278000000
H    -5.916000000    -4.952000000    -1.343000000
H    -7.082000000    -5.902000000    -1.178000000
O    -5.602000000    -3.075000000    -0.666000000
H    -4.799000000    -3.411000000    -0.266000000
H    -5.980000000    -2.502000000     0.001000000
O    -2.799000000    -6.065000000    -1.434000000
H    -3.658000000    -6.123000000    -1.854000000
H    -2.859000000    -5.291000000    -0.874000000
O    -5.641000000    -8.515000000    -1.784000000
H    -5.763000000    -8.230000000    -0.878000000
H    -5.759000000    -7.720000000    -2.303000000
O    -2.815000000    -7.191000000     3.897000000
H    -3.074000000    -7.572000000     3.058000000
H    -2.119000000    -6.573000000     3.675000000
O    -3.294000000    -7.428000000     1.058000000
H    -3.804000000    -8.132000000     0.656000000
H    -3.149000000    -6.803000000     0.348000000
O    -7.842000000    -3.199000000    -3.073000000
H    -7.133000000    -3.587000000    -2.560000000
H    -8.123000000    -2.441000000    -2.559000000
