218
-1453.34381
C    -1.981000000     2.715000000     3.676000000
H    -2.320000000     3.554000000     3.073000000
C    -0.634000000     2.258000000     3.509000000
C    -0.241000000     1.119000000     4.185000000
H     0.756000000     0.686000000     4.203000000
C     0.287000000     2.945000000     2.496000000
O    -0.289000000     4.219000000     2.078000000
H     0.418000000     2.318000000     1.601000000
O     1.632000000     3.123000000     3.102000000
C     2.651000000     2.822000000     2.261000000
C     3.427000000     1.674000000     2.459000000
H     3.218000000     1.080000000     3.345000000
C     4.386000000     1.265000000     1.521000000
O     4.961000000     0.023000000     1.717000000
C     4.613000000     2.016000000     0.348000000
C     5.609000000     1.466000000    -0.647000000
H     6.025000000     2.306000000    -1.206000000
C     4.874000000     0.450000000    -1.544000000
C     4.309000000     1.046000000    -2.703000000
H     4.565000000     2.086000000    -2.889000000
H     6.476000000     1.049000000    -0.130000000
C     3.818000000     3.135000000     0.141000000
H     3.945000000     3.698000000    -0.780000000
C     2.912000000     3.602000000     1.103000000
C     2.274000000     4.892000000     0.917000000
H     2.956000000     5.429000000     0.254000000
H     2.157000000     5.468000000     1.838000000
C     0.945000000     4.702000000     0.178000000
C     0.915000000     4.644000000    -1.256000000
H     1.749000000     4.905000000    -1.902000000
C    -0.288000000     4.517000000     0.788000000
C    -1.452000000     4.299000000     0.103000000
H    -2.328000000     3.943000000     0.638000000
C    -1.423000000     4.389000000    -1.294000000
O    -2.563000000     4.067000000    -1.961000000
C    -2.797000000     2.729000000    -2.309000000
C    -4.197000000     2.327000000    -1.861000000
C    -4.838000000     1.206000000    -2.462000000
H    -4.397000000     0.880000000    -3.401000000
C    -4.801000000     2.868000000    -0.696000000
H    -4.379000000     3.697000000    -0.134000000
O    -2.498000000     2.480000000    -3.706000000
H    -2.002000000     2.202000000    -1.761000000
C    -0.234000000     4.503000000    -1.953000000
C    -0.259000000     4.458000000    -3.384000000
H     0.565000000     5.103000000    -3.696000000
H    -1.185000000     4.913000000    -3.742000000
C    -0.122000000     3.011000000    -3.924000000
C     1.201000000     2.550000000    -4.190000000
H     2.045000000     3.209000000    -4.002000000
C    -1.213000000     2.098000000    -4.044000000
C    -0.953000000     0.787000000    -4.444000000
H    -1.804000000     0.131000000    -4.612000000
C     0.388000000     0.370000000    -4.656000000
O     0.628000000    -0.925000000    -4.912000000
C     1.130000000    -1.649000000    -3.761000000
C     0.361000000    -2.915000000    -3.397000000
C    -0.972000000    -2.704000000    -2.925000000
H    -1.377000000    -1.699000000    -2.841000000
C     0.967000000    -4.184000000    -3.260000000
H     2.019000000    -4.314000000    -3.501000000
O     2.535000000    -1.882000000    -4.000000000
H     1.086000000    -0.968000000    -2.898000000
C     1.473000000     1.227000000    -4.475000000
C     2.916000000     0.862000000    -4.726000000
H     3.553000000     1.717000000    -4.965000000
H     2.897000000     0.205000000    -5.598000000
C     3.594000000     0.278000000    -3.539000000
C     3.451000000    -1.078000000    -3.270000000
C     4.080000000    -1.672000000    -2.188000000
H     3.906000000    -2.736000000    -2.051000000
C     4.705000000    -0.888000000    -1.272000000
O     5.075000000    -1.474000000    -0.063000000
C     4.260000000    -1.072000000     1.060000000
H     3.312000000    -0.645000000     0.701000000
C     3.984000000    -2.305000000     1.997000000
C     3.810000000    -2.193000000     3.357000000
H     3.967000000    -1.239000000     3.854000000
C     3.792000000    -3.532000000     1.406000000
H     3.803000000    -3.579000000     0.320000000
C     3.396000000    -4.656000000     2.163000000
O     3.335000000    -5.909000000     1.568000000
C     3.432000000    -4.571000000     3.514000000
H     3.181000000    -5.415000000     4.151000000
C     3.494000000    -3.305000000     4.117000000
O     3.317000000    -3.235000000     5.454000000
C     2.339000000    -2.465000000     6.078000000
C     1.178000000    -2.038000000     5.417000000
H     1.172000000    -2.198000000     4.342000000
C     2.479000000    -2.248000000     7.436000000
H     3.300000000    -2.774000000     7.917000000
C     1.492000000    -1.474000000     8.086000000
H     1.391000000    -1.427000000     9.168000000
C     0.433000000    -0.944000000     7.404000000
H    -0.344000000    -0.406000000     7.941000000
C     0.244000000    -1.256000000     6.046000000
O    -0.969000000    -0.814000000     5.471000000
C    -1.208000000     0.438000000     5.045000000
C    -2.550000000     0.898000000     5.209000000
H    -3.202000000     0.415000000     5.932000000
C    -2.872000000     2.129000000     4.542000000
O    -4.152000000     2.642000000     4.781000000
C    -4.948000000     3.393000000     3.908000000
C    -5.364000000     2.810000000     2.711000000
H    -5.038000000     1.830000000     2.374000000
C    -5.469000000     4.539000000     4.347000000
H    -5.119000000     4.857000000     5.326000000
C    -6.240000000     5.327000000     3.540000000
H    -6.649000000     6.301000000     3.796000000
C    -6.510000000     4.819000000     2.275000000
H    -7.126000000     5.476000000     1.667000000
C    -6.105000000     3.578000000     1.835000000
O    -6.664000000     3.095000000     0.722000000
C    -5.993000000     2.384000000    -0.260000000
C    -6.584000000     1.228000000    -0.859000000
H    -7.610000000     0.972000000    -0.606000000
C    -5.981000000     0.628000000    -1.960000000
O    -6.574000000    -0.508000000    -2.630000000
C    -5.853000000    -1.574000000    -3.231000000
C    -4.753000000    -2.109000000    -2.565000000
H    -4.486000000    -1.660000000    -1.612000000
C    -6.192000000    -1.960000000    -4.499000000
H    -6.960000000    -1.436000000    -5.061000000
C    -5.404000000    -2.963000000    -5.109000000
H    -5.581000000    -3.242000000    -6.145000000
C    -4.271000000    -3.493000000    -4.402000000
H    -3.784000000    -4.327000000    -4.902000000
C    -3.988000000    -3.110000000    -3.098000000
O    -3.093000000    -3.723000000    -2.231000000
C    -1.734000000    -3.775000000    -2.536000000
C    -1.137000000    -4.970000000    -2.391000000
H    -1.634000000    -5.849000000    -1.988000000
C     0.198000000    -5.209000000    -2.771000000
O     0.730000000    -6.409000000    -2.493000000
C     1.950000000    -6.537000000    -1.807000000
C     3.035000000    -7.184000000    -2.459000000
H     2.885000000    -7.688000000    -3.410000000
C     4.234000000    -7.370000000    -1.722000000
H     5.035000000    -7.927000000    -2.201000000
C     4.323000000    -6.819000000    -0.423000000
H     5.253000000    -6.908000000     0.133000000
C     3.245000000    -6.185000000     0.206000000
C     2.053000000    -6.066000000    -0.491000000
H     1.187000000    -5.623000000    -0.006000000
C    -2.437000000    -0.385000000     0.840000000
H    -3.380000000     0.132000000     0.995000000
C    -1.426000000     0.432000000     0.383000000
H    -1.573000000     1.491000000     0.184000000
C    -0.190000000    -0.193000000     0.055000000
C     0.905000000     0.713000000    -0.483000000
H     0.477000000     1.561000000    -1.021000000
H     1.502000000     1.060000000     0.363000000
H     1.578000000     0.220000000    -1.188000000
C    -0.042000000    -1.502000000     0.278000000
H     0.967000000    -1.861000000     0.087000000
C    -1.069000000    -2.319000000     0.743000000
H    -0.940000000    -3.391000000     0.871000000
C    -2.306000000    -1.764000000     1.060000000
C    -3.403000000    -2.504000000     1.775000000
O    -3.138000000    -3.481000000     2.449000000
O    -4.573000000    -2.214000000     1.727000000
O    -1.401000000    -3.530000000     4.247000000
H    -1.433000000    -2.667000000     4.662000000
H    -2.104000000    -3.510000000     3.598000000
O    -8.777000000    -0.306000000     2.014000000
H    -8.333000000    -1.018000000     1.553000000
H    -9.390000000     0.050000000     1.370000000
O    -7.219000000     1.161000000     5.207000000
H    -7.385000000     1.617000000     6.032000000
H    -6.782000000     1.813000000     4.658000000
O    -4.469000000    -3.360000000     6.355000000
H    -3.603000000    -3.692000000     6.593000000
H    -4.749000000    -2.854000000     7.118000000
O    -6.946000000    -2.644000000     2.885000000
H    -6.145000000    -2.439000000     2.402000000
H    -6.745000000    -2.411000000     3.792000000
O    -6.930000000    -1.846000000     5.600000000
H    -6.122000000    -2.191000000     5.978000000
H    -6.787000000    -0.901000000     5.550000000
O     0.431000000    -7.653000000     1.782000000
H    -0.383000000    -7.768000000     1.292000000
H     0.393000000    -6.752000000     2.102000000
O    -5.914000000    -5.847000000     5.684000000
H    -5.887000000    -5.919000000     4.730000000
H    -5.351000000    -5.100000000     5.884000000
O    -1.332000000    -4.594000000     7.160000000
H    -0.969000000    -4.456000000     6.285000000
H    -0.742000000    -5.227000000     7.568000000
O    -9.431000000    -3.912000000     2.831000000
H    -8.720000000    -3.316000000     2.593000000
H   -10.000000000    -3.390000000     3.397000000
O    -5.180000000    -5.016000000     3.044000000
H    -4.423000000    -4.463000000     2.850000000
H    -5.933000000    -4.501000000     2.757000000
O    -5.934000000    -7.555000000     2.922000000
H    -5.410000000    -6.770000000     2.761000000
H    -5.351000000    -8.135000000     3.412000000
O    -5.775000000    -5.796000000    -1.651000000
H    -6.714000000    -5.969000000    -1.574000000
H    -5.626000000    -5.033000000    -1.093000000
O    -6.003000000    -3.457000000    -0.093000000
H    -5.530000000    -2.985000000     0.593000000
H    -6.849000000    -3.670000000     0.302000000
O    -9.058000000    -2.692000000     0.097000000
H    -9.763000000    -3.234000000     0.452000000
H    -9.487000000    -1.871000000    -0.145000000
O    -3.583000000    -5.658000000     0.654000000
H    -3.952000000    -5.214000000    -0.109000000
H    -3.196000000    -4.955000000     1.176000000
O     0.305000000    -4.993000000     2.465000000
H     0.324000000    -4.268000000     1.840000000
H    -0.358000000    -4.740000000     3.106000000
O    -2.310000000    -8.281000000     0.705000000
H    -2.856000000    -9.042000000     0.506000000
H    -2.898000000    -7.532000000     0.607000000
O    -8.341000000    -3.624000000    -2.603000000
H    -8.678000000    -3.187000000    -1.821000000
H    -7.407000000    -3.412000000    -2.613000000
