218
-1487.78761
C    -3.468000000    -3.036000000    -3.402000000
H    -3.605000000    -2.240000000    -4.130000000
C    -3.801000000    -2.740000000    -2.094000000
C    -3.707000000    -3.843000000    -1.157000000
H    -3.876000000    -3.586000000    -0.115000000
C    -3.974000000    -1.284000000    -1.607000000
O    -4.384000000    -0.397000000    -2.642000000
H    -2.993000000    -0.946000000    -1.242000000
O    -4.877000000    -1.200000000    -0.523000000
C    -4.667000000    -0.187000000     0.373000000
C    -4.258000000    -0.652000000     1.618000000
H    -4.225000000    -1.733000000     1.726000000
C    -3.902000000     0.242000000     2.606000000
O    -3.283000000    -0.357000000     3.717000000
C    -4.038000000     1.658000000     2.397000000
C    -3.518000000     2.631000000     3.394000000
H    -4.017000000     3.576000000     3.170000000
C    -2.013000000     2.839000000     3.218000000
C    -1.596000000     3.895000000     2.410000000
H    -2.409000000     4.419000000     1.913000000
H    -3.720000000     2.431000000     4.449000000
C    -4.606000000     2.142000000     1.240000000
H    -4.779000000     3.184000000     0.985000000
C    -4.855000000     1.273000000     0.174000000
C    -5.242000000     1.822000000    -1.203000000
H    -5.626000000     2.832000000    -1.047000000
H    -6.053000000     1.243000000    -1.651000000
C    -4.074000000     1.870000000    -2.124000000
C    -3.200000000     2.976000000    -2.117000000
H    -3.495000000     3.827000000    -1.508000000
C    -3.720000000     0.798000000    -2.885000000
C    -2.583000000     0.796000000    -3.710000000
H    -2.226000000    -0.080000000    -4.246000000
C    -1.775000000     1.888000000    -3.778000000
O    -0.592000000     1.844000000    -4.473000000
C     0.577000000     1.756000000    -3.691000000
C     1.480000000     0.555000000    -3.981000000
C     2.797000000     0.500000000    -3.505000000
H     3.159000000     1.295000000    -2.859000000
C     0.923000000    -0.529000000    -4.680000000
H    -0.124000000    -0.620000000    -4.959000000
O     1.197000000     3.010000000    -3.514000000
H     0.212000000     1.508000000    -2.683000000
C    -2.108000000     3.025000000    -3.009000000
C    -1.347000000     4.355000000    -3.052000000
H    -2.082000000     5.125000000    -2.810000000
H    -1.095000000     4.586000000    -4.089000000
C    -0.160000000     4.403000000    -2.063000000
C    -0.401000000     5.026000000    -0.827000000
H    -1.329000000     5.527000000    -0.566000000
C     1.037000000     3.691000000    -2.311000000
C     2.118000000     3.749000000    -1.413000000
H     3.022000000     3.198000000    -1.658000000
C     1.800000000     4.231000000    -0.117000000
O     2.738000000     4.053000000     0.820000000
C     2.675000000     3.019000000     1.775000000
C     3.936000000     2.333000000     2.016000000
C     4.897000000     2.118000000     1.022000000
H     4.803000000     2.711000000     0.117000000
C     4.178000000     1.744000000     3.268000000
H     3.456000000     1.850000000     4.073000000
O     2.059000000     3.622000000     2.861000000
H     2.009000000     2.242000000     1.372000000
C     0.589000000     4.917000000     0.086000000
C     0.259000000     5.347000000     1.494000000
H    -0.523000000     6.109000000     1.488000000
H     1.105000000     5.776000000     2.035000000
C    -0.214000000     4.220000000     2.344000000
C     0.724000000     3.465000000     3.081000000
C     0.282000000     2.315000000     3.687000000
H     1.018000000     1.670000000     4.160000000
C    -1.066000000     2.014000000     3.787000000
O    -1.389000000     0.934000000     4.553000000
C    -1.838000000    -0.220000000     3.770000000
H    -1.559000000     0.037000000     2.738000000
C    -0.969000000    -1.418000000     4.195000000
C    -1.215000000    -2.611000000     3.522000000
H    -1.978000000    -2.565000000     2.750000000
C     0.168000000    -1.344000000     4.961000000
H     0.565000000    -0.443000000     5.422000000
C     0.959000000    -2.483000000     5.157000000
O     2.148000000    -2.387000000     5.890000000
C     0.651000000    -3.670000000     4.579000000
H     1.358000000    -4.485000000     4.712000000
C    -0.439000000    -3.767000000     3.753000000
O    -0.757000000    -4.968000000     3.079000000
C    -2.020000000    -5.251000000     2.514000000
C    -2.232000000    -5.354000000     1.179000000
H    -1.503000000    -5.089000000     0.417000000
C    -3.005000000    -5.579000000     3.373000000
H    -2.810000000    -5.462000000     4.436000000
C    -4.207000000    -6.108000000     2.932000000
H    -4.955000000    -6.471000000     3.632000000
C    -4.430000000    -6.270000000     1.559000000
H    -5.304000000    -6.781000000     1.162000000
C    -3.413000000    -5.854000000     0.678000000
O    -3.575000000    -6.139000000    -0.688000000
C    -3.462000000    -5.149000000    -1.576000000
C    -3.320000000    -5.456000000    -2.904000000
H    -3.175000000    -6.484000000    -3.226000000
C    -3.189000000    -4.370000000    -3.768000000
O    -3.038000000    -4.627000000    -5.119000000
C    -2.174000000    -3.860000000    -5.818000000
C    -0.843000000    -3.592000000    -5.390000000
H    -0.575000000    -3.980000000    -4.411000000
C    -2.570000000    -3.323000000    -7.031000000
H    -3.580000000    -3.493000000    -7.396000000
C    -1.718000000    -2.418000000    -7.705000000
H    -2.047000000    -2.054000000    -8.675000000
C    -0.373000000    -2.310000000    -7.374000000
H     0.352000000    -1.742000000    -7.951000000
C     0.079000000    -2.896000000    -6.191000000
O     1.321000000    -2.630000000    -5.769000000
C     1.745000000    -1.529000000    -5.077000000
C     3.088000000    -1.530000000    -4.715000000
H     3.729000000    -2.401000000    -4.833000000
C     3.594000000    -0.570000000    -3.840000000
O     4.847000000    -0.766000000    -3.376000000
C     5.620000000     0.248000000    -2.904000000
C     5.965000000     0.289000000    -1.559000000
H     5.753000000    -0.513000000    -0.856000000
C     5.917000000     1.280000000    -3.775000000
H     5.571000000     1.335000000    -4.804000000
C     6.695000000     2.366000000    -3.270000000
H     6.928000000     3.218000000    -3.903000000
C     7.116000000     2.371000000    -1.983000000
H     7.691000000     3.263000000    -1.744000000
C     6.720000000     1.390000000    -1.070000000
O     7.130000000     1.355000000     0.286000000
C     6.109000000     1.473000000     1.252000000
C     6.360000000     0.938000000     2.495000000
H     7.274000000     0.362000000     2.615000000
C     5.373000000     1.001000000     3.485000000
O     5.703000000     0.671000000     4.762000000
C     4.675000000     0.191000000     5.539000000
C     4.644000000     0.698000000     6.847000000
H     5.399000000     1.415000000     7.158000000
C     3.718000000     0.306000000     7.779000000
H     3.662000000     0.766000000     8.762000000
C     2.828000000    -0.697000000     7.440000000
H     2.063000000    -1.101000000     8.098000000
C     2.940000000    -1.269000000     6.206000000
C     3.856000000    -0.879000000     5.251000000
H     3.883000000    -1.353000000     4.273000000
C     0.108000000    -2.372000000    -0.868000000
H    -0.109000000    -3.032000000    -1.703000000
C    -0.399000000    -1.112000000    -0.926000000
H    -0.990000000    -0.842000000    -1.797000000
C    -0.180000000    -0.229000000     0.159000000
C    -0.955000000     1.041000000     0.260000000
H    -1.743000000     0.884000000     1.000000000
H    -0.300000000     1.802000000     0.691000000
H    -1.406000000     1.380000000    -0.674000000
C     0.610000000    -0.505000000     1.206000000
H     0.829000000     0.206000000     1.998000000
C     1.120000000    -1.783000000     1.286000000
H     1.767000000    -1.949000000     2.144000000
C     0.856000000    -2.780000000     0.324000000
C     1.527000000    -4.093000000     0.376000000
O     2.394000000    -4.375000000     1.191000000
O     1.239000000    -4.931000000    -0.459000000
O     7.336000000    -3.031000000     2.964000000
H     6.454000000    -2.808000000     3.261000000
H     7.785000000    -3.336000000     3.752000000
O     2.387000000    -8.360000000     5.206000000
H     3.312000000    -8.202000000     5.017000000
H     1.919000000    -7.728000000     4.661000000
O     4.335000000    -4.743000000     5.269000000
H     3.960000000    -4.149000000     4.618000000
H     4.380000000    -5.589000000     4.824000000
O     2.620000000    -8.750000000     1.393000000
H     2.485000000    -8.939000000     0.464000000
H     1.923000000    -8.133000000     1.616000000
O     7.511000000    -5.080000000     1.027000000
H     7.441000000    -4.535000000     1.811000000
H     6.621000000    -5.111000000     0.677000000
O     4.712000000    -5.277000000     0.139000000
H     4.871000000    -6.163000000     0.463000000
H     3.887000000    -5.016000000     0.548000000
O     7.382000000    -2.320000000     0.070000000
H     7.271000000    -2.592000000     0.981000000
H     7.441000000    -1.366000000     0.111000000
O     3.976000000    -4.083000000    -2.167000000
H     3.033000000    -4.172000000    -2.031000000
H     4.353000000    -4.163000000    -1.291000000
O     2.031000000    -7.819000000    -1.316000000
H     1.692000000    -6.966000000    -1.045000000
H     2.760000000    -7.613000000    -1.900000000
O     1.889000000    -5.441000000    -4.509000000
H     1.321000000    -6.203000000    -4.627000000
H     2.145000000    -5.193000000    -5.397000000
O     1.881000000    -6.406000000     2.877000000
H     1.007000000    -6.100000000     3.121000000
H     2.145000000    -5.829000000     2.160000000
O    -1.507000000    -8.216000000    -2.616000000
H    -2.020000000    -8.519000000    -1.867000000
H    -1.181000000    -7.356000000    -2.351000000
O     0.437000000    -7.694000000    -4.810000000
H     0.588000000    -8.603000000    -5.067000000
H    -0.192000000    -7.749000000    -4.091000000
O     4.316000000    -6.592000000    -3.149000000
H     3.600000000    -6.367000000    -3.744000000
H     4.620000000    -5.749000000    -2.811000000
O    -0.317000000    -5.834000000    -2.487000000
H     0.317000000    -5.867000000    -3.205000000
H     0.194000000    -5.547000000    -1.730000000
O     4.880000000    -7.494000000     1.507000000
H     4.218000000    -8.120000000     1.213000000
H     4.579000000    -7.215000000     2.371000000
O     1.767000000   -10.465000000    -1.000000000
H     2.424000000   -10.488000000    -1.695000000
H     1.643000000    -9.534000000    -0.818000000
O     4.219000000    -3.133000000     2.495000000
H     3.528000000    -3.697000000     2.147000000
H     4.206000000    -2.361000000     1.928000000
O     7.094000000    -4.095000000    -2.032000000
H     6.206000000    -3.869000000    -2.312000000
H     7.258000000    -3.529000000    -1.277000000
