218
-1456.99743
C    -1.853000000     3.678000000     3.708000000
H    -1.915000000     4.526000000     3.031000000
C    -0.628000000     2.974000000     3.835000000
C    -0.538000000     1.893000000     4.734000000
H     0.418000000     1.399000000     4.891000000
C     0.506000000     3.251000000     2.858000000
O     0.392000000     4.502000000     2.183000000
H     0.311000000     2.510000000     2.069000000
O     1.799000000     3.011000000     3.405000000
C     2.783000000     2.381000000     2.671000000
C     3.146000000     1.113000000     2.984000000
H     2.628000000     0.549000000     3.755000000
C     4.088000000     0.411000000     2.256000000
O     4.412000000    -0.848000000     2.555000000
C     4.714000000     1.070000000     1.132000000
C     5.492000000     0.273000000     0.182000000
H     6.062000000     1.007000000    -0.391000000
C     4.726000000    -0.521000000    -0.807000000
C     4.464000000     0.029000000    -2.097000000
H     4.801000000     1.048000000    -2.270000000
H     6.227000000    -0.374000000     0.665000000
C     4.302000000     2.324000000     0.774000000
H     4.758000000     2.837000000    -0.069000000
C     3.455000000     3.044000000     1.605000000
C     3.024000000     4.465000000     1.197000000
H     3.872000000     4.903000000     0.666000000
H     2.809000000     5.136000000     2.031000000
C     1.776000000     4.538000000     0.274000000
C     1.905000000     4.498000000    -1.132000000
H     2.878000000     4.482000000    -1.616000000
C     0.484000000     4.585000000     0.845000000
C    -0.666000000     4.493000000     0.104000000
H    -1.649000000     4.439000000     0.565000000
C    -0.537000000     4.338000000    -1.315000000
O    -1.723000000     4.074000000    -2.074000000
C    -1.977000000     2.728000000    -2.477000000
C    -3.418000000     2.365000000    -2.307000000
C    -3.978000000     1.198000000    -2.882000000
H    -3.393000000     0.646000000    -3.612000000
C    -4.257000000     2.988000000    -1.389000000
H    -3.919000000     3.811000000    -0.764000000
O    -1.446000000     2.619000000    -3.874000000
H    -1.282000000     2.097000000    -1.904000000
C     0.714000000     4.339000000    -1.932000000
C     0.835000000     4.201000000    -3.412000000
H     1.765000000     4.643000000    -3.776000000
H     0.093000000     4.875000000    -3.846000000
C     0.931000000     2.764000000    -3.867000000
C     2.181000000     2.075000000    -3.953000000
H     3.124000000     2.593000000    -3.803000000
C    -0.220000000     2.007000000    -4.033000000
C    -0.190000000     0.628000000    -4.324000000
H    -1.110000000     0.092000000    -4.543000000
C     1.020000000     0.015000000    -4.420000000
O     1.109000000    -1.298000000    -4.744000000
C     1.224000000    -2.195000000    -3.613000000
C     0.169000000    -3.283000000    -3.576000000
C    -0.935000000    -3.266000000    -4.409000000
H    -0.942000000    -2.433000000    -5.108000000
C     0.305000000    -4.313000000    -2.649000000
H     1.139000000    -4.324000000    -1.951000000
O     2.597000000    -2.754000000    -3.557000000
H     1.138000000    -1.609000000    -2.686000000
C     2.215000000     0.669000000    -4.200000000
C     3.523000000    -0.172000000    -4.389000000
H     4.355000000     0.508000000    -4.581000000
H     3.484000000    -0.932000000    -5.173000000
C     3.760000000    -0.738000000    -3.012000000
C     3.409000000    -2.047000000    -2.688000000
C     3.711000000    -2.575000000    -1.440000000
H     3.406000000    -3.572000000    -1.132000000
C     4.414000000    -1.866000000    -0.466000000
O     4.446000000    -2.336000000     0.761000000
C     3.652000000    -1.817000000     1.812000000
H     2.824000000    -1.218000000     1.408000000
C     3.014000000    -2.870000000     2.758000000
C     2.454000000    -2.524000000     3.996000000
H     2.579000000    -1.514000000     4.379000000
C     2.745000000    -4.149000000     2.264000000
H     2.991000000    -4.295000000     1.215000000
C     2.066000000    -5.121000000     2.984000000
O     1.767000000    -6.366000000     2.471000000
C     1.741000000    -4.758000000     4.355000000
H     1.154000000    -5.443000000     4.961000000
C     1.810000000    -3.472000000     4.750000000
O     1.352000000    -3.199000000     6.025000000
C     1.012000000    -1.954000000     6.553000000
C    -0.181000000    -1.352000000     6.214000000
H    -0.817000000    -1.770000000     5.437000000
C     1.924000000    -1.428000000     7.432000000
H     2.884000000    -1.911000000     7.595000000
C     1.593000000    -0.224000000     8.084000000
H     2.201000000     0.138000000     8.910000000
C     0.363000000     0.441000000     7.776000000
H     0.030000000     1.360000000     8.252000000
C    -0.529000000    -0.189000000     6.851000000
O    -1.673000000     0.494000000     6.459000000
C    -1.713000000     1.437000000     5.386000000
C    -2.895000000     2.090000000     5.205000000
H    -3.766000000     1.700000000     5.724000000
C    -2.993000000     3.213000000     4.383000000
O    -4.195000000     3.842000000     4.262000000
C    -4.614000000     4.377000000     3.048000000
C    -5.054000000     3.450000000     2.110000000
H    -4.791000000     2.417000000     2.324000000
C    -4.961000000     5.705000000     2.913000000
H    -4.740000000     6.446000000     3.677000000
C    -5.642000000     6.140000000     1.767000000
H    -5.744000000     7.197000000     1.538000000
C    -6.029000000     5.210000000     0.802000000
H    -6.549000000     5.465000000    -0.118000000
C    -5.711000000     3.854000000     0.960000000
O    -6.201000000     2.906000000     0.059000000
C    -5.519000000     2.488000000    -1.021000000
C    -6.028000000     1.294000000    -1.623000000
H    -6.933000000     0.794000000    -1.287000000
C    -5.277000000     0.709000000    -2.612000000
O    -5.705000000    -0.435000000    -3.203000000
C    -5.046000000    -0.969000000    -4.311000000
C    -4.328000000    -2.226000000    -4.231000000
H    -4.390000000    -2.789000000    -3.303000000
C    -5.139000000    -0.362000000    -5.594000000
H    -5.725000000     0.551000000    -5.674000000
C    -4.548000000    -1.011000000    -6.721000000
H    -4.593000000    -0.624000000    -7.735000000
C    -3.851000000    -2.222000000    -6.577000000
H    -3.355000000    -2.701000000    -7.418000000
C    -3.694000000    -2.815000000    -5.340000000
O    -3.042000000    -4.065000000    -5.072000000
C    -1.946000000    -4.209000000    -4.372000000
C    -1.802000000    -5.279000000    -3.469000000
H    -2.590000000    -6.021000000    -3.371000000
C    -0.659000000    -5.380000000    -2.632000000
O    -0.603000000    -6.389000000    -1.699000000
C     0.525000000    -6.682000000    -0.988000000
C     1.677000000    -7.236000000    -1.617000000
H     1.711000000    -7.528000000    -2.664000000
C     2.780000000    -7.563000000    -0.855000000
H     3.702000000    -7.929000000    -1.300000000
C     2.787000000    -7.268000000     0.568000000
H     3.635000000    -7.496000000     1.209000000
C     1.620000000    -6.765000000     1.156000000
C     0.556000000    -6.401000000     0.386000000
H    -0.329000000    -5.974000000     0.851000000
C    -2.520000000     0.348000000     1.780000000
H    -3.429000000     0.937000000     1.871000000
C    -1.548000000     0.720000000     0.773000000
H    -1.820000000     1.558000000     0.137000000
C    -0.340000000    -0.079000000     0.643000000
C     0.654000000     0.288000000    -0.416000000
H     1.185000000     1.183000000    -0.085000000
H     1.355000000    -0.526000000    -0.612000000
H     0.314000000     0.571000000    -1.414000000
C    -0.071000000    -1.107000000     1.544000000
H     0.892000000    -1.599000000     1.434000000
C    -1.034000000    -1.487000000     2.511000000
H    -0.907000000    -2.337000000     3.177000000
C    -2.220000000    -0.753000000     2.603000000
C    -3.267000000    -1.293000000     3.611000000
O    -3.197000000    -2.391000000     4.136000000
O    -4.225000000    -0.600000000     3.848000000
O    -0.821000000    -3.416000000     8.383000000
H    -0.425000000    -2.653000000     7.963000000
H    -0.089000000    -4.012000000     8.537000000
O    -5.372000000    -3.703000000     3.375000000
H    -5.387000000    -3.398000000     2.468000000
H    -4.621000000    -3.255000000     3.765000000
O    -6.641000000    -0.592000000     1.762000000
H    -5.882000000    -0.937000000     2.233000000
H    -6.805000000    -1.233000000     1.070000000
O    -6.009000000     1.194000000     4.722000000
H    -6.750000000     1.173000000     4.117000000
H    -5.348000000     0.638000000     4.310000000
O    -7.290000000    -2.403000000     4.811000000
H    -6.882000000    -3.125000000     4.333000000
H    -6.709000000    -2.250000000     5.556000000
O    -1.973000000    -7.270000000     2.526000000
H    -2.076000000    -6.498000000     3.082000000
H    -1.394000000    -7.848000000     3.024000000
O    -8.338000000     1.589000000     1.603000000
H    -7.953000000     2.161000000     0.939000000
H    -7.834000000     0.777000000     1.540000000
O    -7.037000000    -2.799000000     0.028000000
H    -6.123000000    -3.084000000     0.047000000
H    -7.459000000    -3.303000000     0.724000000
O    -5.494000000    -6.579000000     2.151000000
H    -6.443000000    -6.448000000     2.152000000
H    -5.216000000    -6.322000000     3.030000000
O    -5.060000000    -1.222000000     6.524000000
H    -4.691000000    -0.961000000     5.680000000
H    -4.301000000    -1.472000000     7.050000000
O    -7.136000000    -1.657000000     8.190000000
H    -7.122000000    -1.010000000     8.895000000
H    -6.642000000    -1.247000000     7.480000000
O    -2.100000000    -4.963000000     4.135000000
H    -2.771000000    -5.381000000     4.675000000
H    -2.306000000    -4.030000000     4.176000000
O    -2.900000000    -1.250000000    -0.744000000
H    -2.856000000    -0.610000000    -0.034000000
H    -2.264000000    -1.922000000    -0.500000000
O    -4.519000000    -3.124000000     0.549000000
H    -3.943000000    -2.417000000     0.259000000
H    -4.022000000    -3.924000000     0.378000000
O    -6.038000000     1.873000000     7.259000000
H    -6.587000000     1.230000000     7.707000000
H    -6.153000000     1.680000000     6.329000000
O    -9.060000000    -0.729000000     3.321000000
H    -8.651000000    -0.399000000     2.521000000
H    -8.425000000    -1.352000000     3.675000000
O    -5.093000000    -5.951000000     4.942000000
H    -5.280000000    -5.091000000     4.565000000
H    -5.089000000    -5.803000000     5.888000000
O    -2.967000000    -0.134000000     9.111000000
H    -2.434000000     0.227000000     9.819000000
H    -3.164000000     0.618000000     8.552000000
O    -3.293000000    -2.719000000     8.918000000
H    -3.145000000    -1.803000000     9.154000000
H    -2.439000000    -3.029000000     8.615000000
