218
-1477.11459
C    -2.348000000     2.651000000     4.430000000
H    -2.528000000     3.550000000     3.846000000
C    -1.058000000     2.127000000     4.258000000
C    -0.808000000     0.971000000     4.989000000
H     0.196000000     0.556000000     5.009000000
C    -0.038000000     2.766000000     3.256000000
O    -0.336000000     4.164000000     3.118000000
H    -0.113000000     2.264000000     2.280000000
O     1.300000000     2.599000000     3.808000000
C     2.324000000     2.296000000     2.987000000
C     2.815000000     1.002000000     3.072000000
H     2.506000000     0.341000000     3.878000000
C     3.720000000     0.616000000     2.084000000
O     4.080000000    -0.749000000     2.106000000
C     4.243000000     1.529000000     1.223000000
C     5.345000000     1.252000000     0.211000000
H     5.919000000     2.157000000     0.003000000
C     4.819000000     0.620000000    -1.099000000
C     4.330000000     1.424000000    -2.142000000
H     4.577000000     2.482000000    -2.109000000
H     6.048000000     0.604000000     0.738000000
C     3.779000000     2.843000000     1.204000000
H     4.197000000     3.530000000     0.472000000
C     2.792000000     3.243000000     2.045000000
C     2.282000000     4.651000000     1.947000000
H     2.997000000     5.276000000     1.408000000
H     2.085000000     5.180000000     2.881000000
C     0.993000000     4.665000000     1.148000000
C     1.076000000     4.779000000    -0.224000000
H     2.044000000     4.760000000    -0.719000000
C    -0.304000000     4.528000000     1.778000000
C    -1.413000000     4.351000000     0.972000000
H    -2.370000000     4.052000000     1.391000000
C    -1.293000000     4.439000000    -0.439000000
O    -2.363000000     4.142000000    -1.237000000
C    -2.364000000     2.752000000    -1.671000000
C    -3.755000000     2.147000000    -1.277000000
C    -4.190000000     1.024000000    -2.021000000
H    -3.547000000     0.660000000    -2.819000000
C    -4.603000000     2.619000000    -0.300000000
H    -4.202000000     3.406000000     0.333000000
O    -2.128000000     2.863000000    -3.091000000
H    -1.610000000     2.176000000    -1.114000000
C    -0.046000000     4.700000000    -0.998000000
C    -0.004000000     4.972000000    -2.495000000
H     0.778000000     5.699000000    -2.724000000
H    -0.911000000     5.445000000    -2.878000000
C     0.180000000     3.625000000    -3.215000000
C     1.516000000     3.246000000    -3.597000000
H     2.340000000     3.893000000    -3.308000000
C    -0.836000000     2.701000000    -3.514000000
C    -0.623000000     1.491000000    -4.141000000
H    -1.442000000     0.797000000    -4.306000000
C     0.732000000     1.123000000    -4.366000000
O     1.031000000    -0.175000000    -4.880000000
C     1.468000000    -1.107000000    -3.881000000
C     0.745000000    -2.483000000    -3.940000000
C    -0.644000000    -2.499000000    -3.733000000
H    -1.234000000    -1.587000000    -3.690000000
C     1.509000000    -3.639000000    -4.015000000
H     2.591000000    -3.583000000    -4.108000000
O     2.877000000    -1.266000000    -4.113000000
H     1.333000000    -0.772000000    -2.842000000
C     1.799000000     2.026000000    -4.160000000
C     3.257000000     1.709000000    -4.364000000
H     3.999000000     2.500000000    -4.484000000
H     3.309000000     1.134000000    -5.291000000
C     3.758000000     0.833000000    -3.267000000
C     3.651000000    -0.551000000    -3.303000000
C     3.985000000    -1.354000000    -2.213000000
H     3.803000000    -2.425000000    -2.234000000
C     4.491000000    -0.784000000    -1.061000000
O     4.724000000    -1.602000000     0.040000000
C     3.639000000    -1.498000000     0.973000000
H     2.847000000    -0.923000000     0.471000000
C     3.124000000    -2.827000000     1.411000000
C     2.359000000    -2.830000000     2.538000000
H     2.109000000    -1.904000000     3.050000000
C     3.283000000    -3.995000000     0.674000000
H     3.823000000    -3.915000000    -0.266000000
C     2.658000000    -5.209000000     1.071000000
O     3.000000000    -6.427000000     0.529000000
C     1.908000000    -5.257000000     2.276000000
H     1.444000000    -6.198000000     2.559000000
C     1.724000000    -3.991000000     2.947000000
O     0.917000000    -3.978000000     4.027000000
C     0.906000000    -3.109000000     5.058000000
C    -0.281000000    -2.501000000     5.389000000
H    -1.227000000    -2.638000000     4.871000000
C     2.082000000    -2.915000000     5.735000000
H     3.014000000    -3.438000000     5.533000000
C     2.047000000    -1.948000000     6.739000000
H     2.986000000    -1.800000000     7.266000000
C     0.898000000    -1.189000000     7.041000000
H     0.932000000    -0.430000000     7.818000000
C    -0.315000000    -1.502000000     6.373000000
O    -1.436000000    -0.775000000     6.599000000
C    -1.721000000     0.347000000     5.817000000
C    -2.948000000     0.871000000     5.965000000
H    -3.742000000     0.308000000     6.448000000
C    -3.267000000     2.058000000     5.325000000
O    -4.642000000     2.388000000     5.368000000
C    -5.280000000     3.112000000     4.431000000
C    -5.619000000     2.417000000     3.235000000
H    -5.451000000     1.343000000     3.252000000
C    -5.496000000     4.462000000     4.512000000
H    -5.227000000     4.952000000     5.444000000
C    -5.909000000     5.139000000     3.343000000
H    -6.074000000     6.214000000     3.364000000
C    -6.355000000     4.480000000     2.213000000
H    -6.724000000     5.101000000     1.401000000
C    -6.140000000     3.118000000     2.123000000
O    -6.579000000     2.461000000     0.984000000
C    -5.855000000     2.057000000    -0.092000000
C    -6.273000000     0.991000000    -0.850000000
H    -7.268000000     0.573000000    -0.722000000
C    -5.457000000     0.454000000    -1.864000000
O    -5.918000000    -0.532000000    -2.666000000
C    -5.237000000    -1.230000000    -3.658000000
C    -4.355000000    -2.228000000    -3.321000000
H    -4.215000000    -2.431000000    -2.263000000
C    -5.364000000    -0.859000000    -4.971000000
H    -6.063000000    -0.059000000    -5.200000000
C    -4.620000000    -1.539000000    -5.934000000
H    -4.536000000    -1.137000000    -6.941000000
C    -3.755000000    -2.574000000    -5.590000000
H    -3.124000000    -3.043000000    -6.340000000
C    -3.571000000    -2.880000000    -4.214000000
O    -2.697000000    -3.879000000    -3.784000000
C    -1.306000000    -3.708000000    -3.742000000
C    -0.581000000    -4.903000000    -3.697000000
H    -1.020000000    -5.895000000    -3.763000000
C     0.827000000    -4.827000000    -3.856000000
O     1.511000000    -5.962000000    -3.942000000
C     2.571000000    -6.243000000    -3.075000000
C     3.690000000    -6.997000000    -3.454000000
H     3.881000000    -7.238000000    -4.497000000
C     4.632000000    -7.471000000    -2.540000000
H     5.457000000    -8.053000000    -2.941000000
C     4.365000000    -7.307000000    -1.192000000
H     4.946000000    -7.795000000    -0.414000000
C     3.235000000    -6.499000000    -0.844000000
C     2.260000000    -6.058000000    -1.758000000
H     1.329000000    -5.663000000    -1.361000000
C    -1.511000000    -0.892000000     1.499000000
H    -2.260000000    -0.728000000     2.269000000
C    -0.783000000     0.153000000     0.851000000
H    -1.013000000     1.213000000     0.922000000
C     0.194000000    -0.224000000    -0.052000000
C     1.001000000     0.796000000    -0.652000000
H     1.815000000     0.233000000    -1.112000000
H     0.443000000     1.345000000    -1.413000000
H     1.288000000     1.498000000     0.133000000
C     0.516000000    -1.548000000    -0.314000000
H     1.278000000    -1.838000000    -1.033000000
C    -0.249000000    -2.587000000     0.268000000
H    -0.084000000    -3.620000000    -0.027000000
C    -1.295000000    -2.253000000     1.185000000
C    -2.175000000    -3.296000000     1.775000000
O    -1.947000000    -4.469000000     1.831000000
O    -3.306000000    -2.963000000     2.118000000
O    -3.250000000    -7.217000000    -2.462000000
H    -2.830000000    -6.411000000    -2.162000000
H    -3.696000000    -7.558000000    -1.687000000
O    -6.732000000    -6.044000000     1.009000000
H    -6.204000000    -5.851000000     1.784000000
H    -7.579000000    -6.320000000     1.359000000
O     0.248000000    -6.427000000     5.301000000
H     0.330000000    -5.495000000     5.505000000
H    -0.325000000    -6.772000000     5.986000000
O    -7.121000000    -1.327000000     4.118000000
H    -6.347000000    -1.560000000     4.631000000
H    -6.797000000    -1.244000000     3.221000000
O    -4.158000000    -1.831000000     4.533000000
H    -3.947000000    -2.130000000     3.648000000
H    -4.003000000    -2.596000000     5.087000000
O    -5.082000000    -2.064000000     7.517000000
H    -4.681000000    -2.861000000     7.171000000
H    -4.402000000    -1.672000000     8.064000000
O    -6.859000000    -5.255000000     4.779000000
H    -6.992000000    -6.135000000     5.130000000
H    -6.199000000    -5.366000000     4.094000000
O    -5.944000000    -1.424000000     1.329000000
H    -5.324000000    -0.957000000     0.769000000
H    -5.535000000    -2.275000000     1.482000000
O    -8.483000000    -0.767000000     1.062000000
H    -8.779000000    -1.052000000     0.198000000
H    -7.580000000    -1.078000000     1.121000000
O     1.415000000    -8.530000000     1.204000000
H     0.787000000    -8.145000000     0.593000000
H     1.971000000    -7.798000000     1.471000000
O    -4.585000000    -5.098000000     3.133000000
H    -4.102000000    -4.294000000     2.941000000
H    -4.117000000    -5.488000000     3.872000000
O    -5.346000000    -4.115000000    -0.712000000
H    -5.449000000    -4.876000000    -0.140000000
H    -4.418000000    -4.118000000    -0.949000000
O    -2.888000000    -4.959000000    -1.053000000
H    -2.166000000    -4.337000000    -1.140000000
H    -2.968000000    -5.102000000    -0.110000000
O    -3.267000000    -6.909000000     1.034000000
H    -2.894000000    -6.328000000     1.697000000
H    -3.849000000    -7.490000000     1.523000000
O    -4.029000000    -4.274000000     6.271000000
H    -4.375000000    -4.710000000     7.050000000
H    -3.329000000    -4.852000000     5.966000000
O    -3.241000000    -7.941000000     5.929000000
H    -2.947000000    -7.586000000     5.090000000
H    -2.996000000    -8.866000000     5.897000000
O    -7.562000000    -3.701000000    -2.098000000
H    -6.736000000    -3.824000000    -1.631000000
H    -7.363000000    -3.943000000    -3.003000000
O    -2.033000000    -6.274000000     3.888000000
H    -1.159000000    -6.559000000     4.155000000
H    -1.877000000    -5.677000000     3.156000000
O    -0.478000000    -6.712000000     0.201000000
H    -0.574000000    -6.289000000     1.054000000
H    -1.334000000    -7.107000000     0.032000000
