218
-1449.48538
C    -3.324000000    -2.884000000    -3.445000000
H    -3.383000000    -2.215000000    -4.300000000
C    -3.534000000    -2.474000000    -2.152000000
C    -3.330000000    -3.370000000    -1.105000000
H    -3.443000000    -3.084000000    -0.063000000
C    -3.956000000    -1.024000000    -1.812000000
O    -4.460000000    -0.362000000    -3.023000000
H    -3.082000000    -0.413000000    -1.541000000
O    -4.880000000    -0.872000000    -0.685000000
C    -4.675000000     0.101000000     0.273000000
C    -4.351000000    -0.312000000     1.605000000
H    -4.415000000    -1.394000000     1.698000000
C    -3.907000000     0.637000000     2.547000000
O    -3.402000000     0.166000000     3.749000000
C    -3.947000000     2.016000000     2.219000000
C    -3.496000000     3.053000000     3.157000000
H    -3.925000000     4.044000000     2.995000000
C    -1.941000000     3.328000000     3.162000000
C    -1.416000000     4.364000000     2.425000000
H    -2.009000000     5.029000000     1.804000000
H    -3.749000000     2.676000000     4.150000000
C    -4.414000000     2.402000000     0.945000000
H    -4.413000000     3.457000000     0.683000000
C    -4.765000000     1.444000000    -0.062000000
C    -5.200000000     1.956000000    -1.425000000
H    -5.514000000     3.000000000    -1.479000000
H    -5.994000000     1.373000000    -1.897000000
C    -3.970000000     1.875000000    -2.425000000
C    -3.132000000     3.011000000    -2.476000000
H    -3.286000000     3.909000000    -1.883000000
C    -3.812000000     0.802000000    -3.313000000
C    -2.664000000     0.770000000    -4.049000000
H    -2.331000000    -0.050000000    -4.680000000
C    -1.766000000     1.871000000    -4.107000000
O    -0.531000000     1.619000000    -4.678000000
C     0.591000000     1.433000000    -3.741000000
C     1.571000000     0.212000000    -4.086000000
C     2.745000000     0.054000000    -3.414000000
H     2.880000000     0.788000000    -2.624000000
C     1.223000000    -0.815000000    -5.057000000
H     0.282000000    -0.884000000    -5.596000000
O     1.329000000     2.661000000    -3.569000000
H     0.187000000     1.159000000    -2.755000000
C    -2.044000000     3.044000000    -3.353000000
C    -1.151000000     4.298000000    -3.254000000
H    -1.741000000     5.149000000    -2.909000000
H    -0.662000000     4.445000000    -4.219000000
C    -0.018000000     4.180000000    -2.217000000
C    -0.197000000     4.876000000    -0.995000000
H    -1.105000000     5.433000000    -0.783000000
C     1.158000000     3.468000000    -2.478000000
C     2.247000000     3.583000000    -1.588000000
H     3.182000000     3.053000000    -1.748000000
C     2.014000000     4.166000000    -0.343000000
O     3.031000000     3.964000000     0.601000000
C     2.723000000     3.081000000     1.730000000
C     3.940000000     2.204000000     2.113000000
C     5.014000000     2.081000000     1.131000000
H     4.952000000     2.601000000     0.179000000
C     4.044000000     1.510000000     3.322000000
H     3.251000000     1.610000000     4.059000000
O     2.180000000     3.686000000     2.911000000
H     1.970000000     2.384000000     1.334000000
C     0.805000000     4.824000000    -0.028000000
C     0.517000000     5.533000000     1.261000000
H    -0.220000000     6.324000000     1.106000000
H     1.391000000     6.093000000     1.602000000
C    -0.027000000     4.610000000     2.344000000
C     0.842000000     3.698000000     3.047000000
C     0.307000000     2.609000000     3.819000000
H     1.043000000     2.011000000     4.351000000
C    -1.062000000     2.404000000     3.822000000
O    -1.494000000     1.284000000     4.505000000
C    -1.958000000     0.100000000     3.798000000
H    -1.562000000     0.156000000     2.774000000
C    -1.429000000    -1.183000000     4.428000000
C    -2.007000000    -2.370000000     4.153000000
H    -2.985000000    -2.298000000     3.685000000
C    -0.230000000    -1.101000000     5.101000000
H     0.295000000    -0.178000000     5.334000000
C     0.336000000    -2.290000000     5.620000000
O     1.422000000    -2.241000000     6.529000000
C    -0.363000000    -3.568000000     5.398000000
H     0.093000000    -4.456000000     5.828000000
C    -1.542000000    -3.617000000     4.628000000
O    -2.114000000    -4.837000000     4.320000000
C    -2.863000000    -5.071000000     3.258000000
C    -2.317000000    -5.047000000     1.960000000
H    -1.266000000    -4.869000000     1.746000000
C    -4.242000000    -5.139000000     3.395000000
H    -4.699000000    -5.013000000     4.373000000
C    -5.093000000    -5.503000000     2.346000000
H    -6.164000000    -5.479000000     2.530000000
C    -4.535000000    -5.660000000     1.099000000
H    -5.243000000    -5.795000000     0.286000000
C    -3.163000000    -5.441000000     0.923000000
O    -2.653000000    -5.512000000    -0.397000000
C    -2.920000000    -4.626000000    -1.348000000
C    -2.646000000    -5.025000000    -2.635000000
H    -2.384000000    -6.076000000    -2.728000000
C    -2.855000000    -4.198000000    -3.703000000
O    -2.547000000    -4.699000000    -4.887000000
C    -1.626000000    -4.169000000    -5.823000000
C    -0.365000000    -3.685000000    -5.502000000
H     0.127000000    -3.852000000    -4.547000000
C    -2.074000000    -4.099000000    -7.120000000
H    -3.060000000    -4.411000000    -7.456000000
C    -1.251000000    -3.467000000    -8.098000000
H    -1.628000000    -3.290000000    -9.102000000
C     0.021000000    -3.014000000    -7.800000000
H     0.845000000    -2.737000000    -8.452000000
C     0.487000000    -3.167000000    -6.493000000
O     1.764000000    -2.852000000    -6.179000000
C     2.078000000    -1.885000000    -5.230000000
C     3.255000000    -1.955000000    -4.574000000
H     4.005000000    -2.719000000    -4.765000000
C     3.661000000    -0.912000000    -3.724000000
O     4.770000000    -1.188000000    -2.914000000
C     5.738000000    -0.284000000    -2.592000000
C     5.997000000    -0.115000000    -1.173000000
H     5.396000000    -0.702000000    -0.483000000
C     6.357000000     0.523000000    -3.564000000
H     6.151000000     0.331000000    -4.614000000
C     7.349000000     1.460000000    -3.224000000
H     7.749000000     2.158000000    -3.955000000
C     7.578000000     1.614000000    -1.886000000
H     8.477000000     2.190000000    -1.681000000
C     6.948000000     0.912000000    -0.846000000
O     7.165000000     1.205000000     0.505000000
C     6.158000000     1.329000000     1.396000000
C     6.147000000     0.670000000     2.660000000
H     7.049000000     0.157000000     2.983000000
C     5.151000000     0.724000000     3.619000000
O     5.293000000     0.044000000     4.799000000
C     4.288000000    -0.114000000     5.735000000
C     4.274000000     0.724000000     6.869000000
H     5.077000000     1.445000000     7.006000000
C     3.158000000     0.687000000     7.726000000
H     3.112000000     1.246000000     8.657000000
C     2.227000000    -0.309000000     7.546000000
H     1.410000000    -0.493000000     8.239000000
C     2.338000000    -1.225000000     6.519000000
C     3.354000000    -1.138000000     5.636000000
H     3.450000000    -1.884000000     4.852000000
C     0.610000000    -2.398000000    -1.087000000
H     0.506000000    -3.155000000    -1.859000000
C    -0.024000000    -1.188000000    -1.194000000
H    -0.457000000    -0.947000000    -2.161000000
C     0.039000000    -0.154000000    -0.222000000
C    -0.865000000     1.099000000    -0.241000000
H    -1.252000000     1.188000000    -1.258000000
H    -1.611000000     0.857000000     0.519000000
H    -0.250000000     2.000000000    -0.198000000
C     0.784000000    -0.362000000     0.918000000
H     0.819000000     0.448000000     1.641000000
C     1.454000000    -1.585000000     1.032000000
H     1.932000000    -1.729000000     1.998000000
C     1.394000000    -2.618000000     0.041000000
C     2.092000000    -3.948000000     0.111000000
O     3.087000000    -4.106000000     0.825000000
O     1.839000000    -4.742000000    -0.719000000
O     1.921000000    -7.456000000     4.691000000
H     1.400000000    -7.706000000     3.928000000
H     2.050000000    -6.512000000     4.594000000
O     5.434000000    -7.172000000     0.031000000
H     5.505000000    -6.538000000     0.744000000
H     6.302000000    -7.570000000    -0.023000000
O     6.567000000    -3.697000000    -3.621000000
H     6.303000000    -3.717000000    -2.701000000
H     6.524000000    -4.611000000    -3.903000000
O     0.637000000    -7.866000000     2.172000000
H     1.251000000    -7.302000000     1.701000000
H     0.006000000    -8.141000000     1.506000000
O     7.315000000    -5.064000000    -0.078000000
H     6.898000000    -4.299000000    -0.475000000
H     7.915000000    -5.385000000    -0.752000000
O    -0.984000000    -7.850000000    -0.006000000
H    -1.923000000    -7.761000000    -0.168000000
H    -0.572000000    -7.338000000    -0.703000000
O     4.943000000    -3.802000000    -1.390000000
H     4.436000000    -3.338000000    -2.056000000
H     4.290000000    -4.103000000    -0.758000000
O     5.022000000    -5.518000000     2.011000000
H     4.506000000    -6.007000000     2.652000000
H     4.375000000    -5.011000000     1.520000000
O    -1.825000000    -8.847000000     3.564000000
H    -1.483000000    -9.734000000     3.450000000
H    -1.111000000    -8.277000000     3.278000000
O     5.180000000    -2.235000000     1.349000000
H     5.161000000    -2.708000000     0.518000000
H     4.348000000    -2.454000000     1.769000000
O     2.566000000    -7.153000000     0.502000000
H     3.521000000    -7.154000000     0.442000000
H     2.321000000    -6.231000000     0.423000000
O     1.726000000    -6.519000000    -4.652000000
H     2.567000000    -6.565000000    -4.198000000
H     1.882000000    -5.922000000    -5.384000000
O     2.603000000    -4.773000000     3.627000000
H     2.725000000    -4.432000000     2.741000000
H     3.315000000    -4.383000000     4.134000000
O     0.703000000   -10.458000000    -1.575000000
H     0.712000000    -9.670000000    -1.031000000
H     1.533000000   -10.894000000    -1.378000000
O     4.165000000    -7.025000000    -3.169000000
H     4.504000000    -6.387000000    -2.541000000
H     4.237000000    -7.866000000    -2.718000000
O     0.331000000    -6.642000000    -2.050000000
H     0.809000000    -6.784000000    -2.868000000
H     0.745000000    -5.872000000    -1.661000000
O     2.652000000    -9.954000000     0.088000000
H     3.606000000   -10.003000000     0.150000000
H     2.440000000    -9.063000000     0.364000000
O     4.660000000    -4.110000000     5.317000000
H     5.059000000    -3.649000000     6.055000000
H     5.278000000    -4.810000000     5.109000000
O     7.643000000    -2.185000000     2.316000000
H     6.786000000    -2.030000000     1.918000000
H     7.444000000    -2.506000000     3.195000000
