218
-1487.76381
C    -2.641000000     2.486000000     3.617000000
H    -2.668000000     3.065000000     2.697000000
C    -1.364000000     2.131000000     4.025000000
C    -1.253000000     1.221000000     5.048000000
H    -0.267000000     1.042000000     5.470000000
C    -0.099000000     2.595000000     3.305000000
O    -0.292000000     3.888000000     2.881000000
H    -0.062000000     1.952000000     2.413000000
O     1.098000000     2.466000000     4.124000000
C     2.170000000     2.020000000     3.459000000
C     2.465000000     0.682000000     3.704000000
H     1.774000000     0.035000000     4.238000000
C     3.582000000     0.173000000     3.039000000
O     3.759000000    -1.228000000     3.125000000
C     4.397000000     0.926000000     2.165000000
C     5.390000000     0.395000000     1.236000000
H     6.121000000     1.117000000     0.867000000
C     4.857000000    -0.346000000    -0.004000000
C     4.819000000     0.438000000    -1.145000000
H     5.094000000     1.488000000    -1.219000000
H     6.019000000    -0.280000000     1.820000000
C     4.005000000     2.257000000     1.933000000
H     4.539000000     2.810000000     1.165000000
C     2.939000000     2.831000000     2.640000000
C     2.586000000     4.295000000     2.385000000
H     3.471000000     4.895000000     2.165000000
H     2.083000000     4.663000000     3.282000000
C     1.561000000     4.410000000     1.327000000
C     1.950000000     4.536000000    -0.066000000
H     2.986000000     4.775000000    -0.296000000
C     0.193000000     4.199000000     1.630000000
C    -0.733000000     4.180000000     0.583000000
H    -1.774000000     4.059000000     0.872000000
C    -0.334000000     4.544000000    -0.684000000
O    -1.230000000     4.589000000    -1.593000000
C    -1.548000000     3.238000000    -2.178000000
C    -2.974000000     2.914000000    -2.301000000
C    -3.344000000     1.876000000    -3.116000000
H    -2.532000000     1.292000000    -3.542000000
C    -3.921000000     3.484000000    -1.505000000
H    -3.674000000     4.299000000    -0.830000000
O    -0.926000000     3.138000000    -3.496000000
H    -1.173000000     2.428000000    -1.535000000
C     1.008000000     4.578000000    -1.090000000
C     1.380000000     4.713000000    -2.515000000
H     2.379000000     5.153000000    -2.545000000
H     0.616000000     5.337000000    -2.985000000
C     1.435000000     3.371000000    -3.212000000
C     2.705000000     2.767000000    -3.133000000
H     3.491000000     3.247000000    -2.556000000
C     0.322000000     2.653000000    -3.693000000
C     0.409000000     1.361000000    -4.162000000
H    -0.453000000     0.814000000    -4.535000000
C     1.690000000     0.777000000    -4.194000000
O     1.705000000    -0.530000000    -4.641000000
C     1.686000000    -1.591000000    -3.675000000
C     0.791000000    -2.735000000    -4.073000000
C    -0.401000000    -2.508000000    -4.706000000
H    -0.722000000    -1.505000000    -4.975000000
C     1.123000000    -4.109000000    -3.819000000
H     2.018000000    -4.434000000    -3.296000000
O     3.062000000    -1.966000000    -3.429000000
H     1.272000000    -1.283000000    -2.704000000
C     2.812000000     1.439000000    -3.644000000
C     4.149000000     0.708000000    -3.583000000
H     4.933000000     1.448000000    -3.760000000
H     4.238000000     0.078000000    -4.470000000
C     4.287000000    -0.141000000    -2.318000000
C     3.766000000    -1.433000000    -2.340000000
C     3.841000000    -2.209000000    -1.177000000
H     3.389000000    -3.198000000    -1.193000000
C     4.472000000    -1.674000000    -0.031000000
O     4.378000000    -2.418000000     1.130000000
C     3.269000000    -2.080000000     2.036000000
H     2.590000000    -1.432000000     1.463000000
C     2.483000000    -3.241000000     2.510000000
C     1.711000000    -3.235000000     3.707000000
H     1.931000000    -2.441000000     4.416000000
C     2.347000000    -4.364000000     1.667000000
H     2.799000000    -4.423000000     0.680000000
C     1.331000000    -5.299000000     1.915000000
O     1.043000000    -6.347000000     1.039000000
C     0.503000000    -5.203000000     3.036000000
H    -0.256000000    -5.956000000     3.233000000
C     0.740000000    -4.194000000     3.927000000
O    -0.056000000    -4.070000000     4.981000000
C    -0.020000000    -3.030000000     5.892000000
C    -1.082000000    -2.110000000     5.870000000
H    -1.977000000    -2.176000000     5.257000000
C     0.900000000    -2.932000000     6.927000000
H     1.752000000    -3.608000000     6.925000000
C     0.800000000    -1.915000000     7.936000000
H     1.616000000    -1.691000000     8.619000000
C    -0.183000000    -0.947000000     7.862000000
H    -0.215000000    -0.124000000     8.571000000
C    -1.126000000    -1.030000000     6.803000000
O    -2.186000000    -0.111000000     6.780000000
C    -2.350000000     0.645000000     5.670000000
C    -3.679000000     1.097000000     5.302000000
H    -4.541000000     0.773000000     5.879000000
C    -3.817000000     1.946000000     4.213000000
O    -5.070000000     2.289000000     3.747000000
C    -5.291000000     3.294000000     2.844000000
C    -5.711000000     2.996000000     1.544000000
H    -5.703000000     1.962000000     1.210000000
C    -5.345000000     4.624000000     3.333000000
H    -5.093000000     4.798000000     4.376000000
C    -5.908000000     5.602000000     2.454000000
H    -6.128000000     6.613000000     2.787000000
C    -6.285000000     5.272000000     1.144000000
H    -6.475000000     6.078000000     0.440000000
C    -6.002000000     4.001000000     0.640000000
O    -6.150000000     3.744000000    -0.710000000
C    -5.254000000     3.163000000    -1.560000000
C    -5.680000000     2.156000000    -2.444000000
H    -6.737000000     1.908000000    -2.496000000
C    -4.696000000     1.468000000    -3.170000000
O    -5.042000000     0.324000000    -3.830000000
C    -4.307000000    -0.249000000    -4.779000000
C    -3.667000000    -1.458000000    -4.706000000
H    -3.585000000    -1.946000000    -3.737000000
C    -4.112000000     0.552000000    -5.945000000
H    -4.638000000     1.503000000    -5.939000000
C    -3.435000000     0.064000000    -7.079000000
H    -3.354000000     0.732000000    -7.933000000
C    -2.949000000    -1.288000000    -6.990000000
H    -2.590000000    -1.834000000    -7.858000000
C    -3.026000000    -2.014000000    -5.789000000
O    -2.388000000    -3.263000000    -5.811000000
C    -1.245000000    -3.536000000    -5.054000000
C    -0.954000000    -4.849000000    -4.709000000
H    -1.604000000    -5.657000000    -5.038000000
C     0.183000000    -5.146000000    -3.994000000
O     0.524000000    -6.489000000    -3.630000000
C     1.239000000    -6.806000000    -2.510000000
C     2.483000000    -7.419000000    -2.646000000
H     2.802000000    -7.718000000    -3.641000000
C     3.364000000    -7.463000000    -1.600000000
H     4.402000000    -7.728000000    -1.783000000
C     2.868000000    -7.099000000    -0.325000000
H     3.379000000    -7.427000000     0.576000000
C     1.574000000    -6.615000000    -0.217000000
C     0.714000000    -6.389000000    -1.303000000
H    -0.297000000    -5.989000000    -1.309000000
C    -3.083000000    -0.132000000    -0.057000000
H    -3.890000000     0.530000000     0.247000000
C    -1.845000000     0.507000000    -0.013000000
H    -1.762000000     1.478000000     0.467000000
C    -0.685000000    -0.160000000    -0.486000000
C     0.597000000     0.636000000    -0.530000000
H     0.681000000     1.467000000     0.173000000
H     1.452000000     0.022000000    -0.236000000
H     0.793000000     1.038000000    -1.526000000
C    -0.738000000    -1.496000000    -0.862000000
H     0.170000000    -2.066000000    -1.038000000
C    -2.020000000    -2.145000000    -0.801000000
H    -1.983000000    -3.200000000    -1.057000000
C    -3.236000000    -1.488000000    -0.489000000
C    -4.601000000    -2.106000000    -0.486000000
O    -4.765000000    -3.273000000    -0.857000000
O    -5.569000000    -1.369000000    -0.122000000
O    -8.226000000     0.769000000     2.419000000
H    -8.519000000     1.611000000     2.070000000
H    -8.681000000     0.117000000     1.886000000
O    -8.772000000    -5.649000000    -1.562000000
H    -8.054000000    -5.457000000    -0.959000000
H    -8.650000000    -5.031000000    -2.283000000
O    -8.145000000    -2.106000000     0.530000000
H    -7.298000000    -1.709000000     0.328000000
H    -7.963000000    -3.045000000     0.581000000
O    -5.740000000    -2.111000000     2.498000000
H    -5.682000000    -1.779000000     1.602000000
H    -6.347000000    -1.514000000     2.935000000
O   -10.406000000    -0.844000000     0.825000000
H   -10.688000000    -0.460000000    -0.005000000
H    -9.579000000    -1.280000000     0.619000000
O    -3.266000000    -3.108000000     3.146000000
H    -3.188000000    -3.543000000     2.297000000
H    -3.896000000    -2.403000000     2.996000000
O    -7.118000000    -3.928000000    -3.229000000
H    -7.316000000    -3.698000000    -4.137000000
H    -6.202000000    -4.208000000    -3.247000000
O    -6.776000000    -4.682000000     0.165000000
H    -6.095000000    -4.055000000    -0.077000000
H    -6.298000000    -5.428000000     0.527000000
O    -6.582000000    -0.103000000     4.086000000
H    -5.772000000     0.274000000     3.742000000
H    -7.278000000     0.410000000     3.677000000
O    -9.447000000     0.230000000    -3.240000000
H    -8.619000000    -0.141000000    -2.936000000
H    -9.926000000     0.437000000    -2.438000000
O    -2.941000000    -6.534000000    -1.368000000
H    -2.702000000    -7.080000000    -2.117000000
H    -3.528000000    -7.084000000    -0.849000000
O    -7.318000000    -1.553000000    -2.226000000
H    -6.697000000    -1.483000000    -1.501000000
H    -7.443000000    -2.494000000    -2.346000000
O    -4.467000000    -4.940000000    -2.977000000
H    -3.938000000    -5.562000000    -2.478000000
H    -4.491000000    -4.154000000    -2.430000000
O    -5.023000000    -4.974000000    -5.939000000
H    -4.318000000    -4.708000000    -6.529000000
H    -4.574000000    -5.285000000    -5.154000000
O    -4.381000000    -5.073000000     4.907000000
H    -5.280000000    -5.035000000     4.581000000
H    -3.947000000    -4.323000000     4.502000000
O    -6.765000000    -4.552000000     3.238000000
H    -7.678000000    -4.431000000     3.501000000
H    -6.595000000    -3.834000000     2.629000000
O    -7.283000000    -2.084000000    -5.315000000
H    -7.425000000    -1.432000000    -6.002000000
H    -6.794000000    -1.616000000    -4.638000000
O    -5.937000000    -6.950000000     2.270000000
H    -6.710000000    -7.511000000     2.328000000
H    -6.246000000    -6.087000000     2.544000000
O    -3.347000000    -4.768000000     0.842000000
H    -3.835000000    -4.153000000     0.294000000
H    -3.020000000    -5.427000000     0.230000000
