218
-1445.63471
C    -2.110000000     2.473000000     3.839000000
H    -2.204000000     3.310000000     3.153000000
C    -0.892000000     1.844000000     4.093000000
C    -0.812000000     0.667000000     4.841000000
H     0.155000000     0.172000000     4.867000000
C     0.311000000     2.400000000     3.341000000
O     0.234000000     3.788000000     2.985000000
H     0.405000000     1.725000000     2.477000000
O     1.550000000     2.192000000     4.034000000
C     2.588000000     1.875000000     3.242000000
C     2.766000000     0.513000000     3.276000000
H     2.236000000    -0.097000000     4.002000000
C     3.791000000    -0.055000000     2.489000000
O     4.010000000    -1.429000000     2.606000000
C     4.476000000     0.695000000     1.558000000
C     5.485000000    -0.022000000     0.668000000
H     6.221000000     0.717000000     0.342000000
C     4.779000000    -0.560000000    -0.528000000
C     4.719000000     0.196000000    -1.643000000
H     5.233000000     1.154000000    -1.634000000
H     6.016000000    -0.863000000     1.117000000
C     4.205000000     2.052000000     1.421000000
H     4.749000000     2.614000000     0.666000000
C     3.312000000     2.672000000     2.348000000
C     3.051000000     4.128000000     2.217000000
H     3.963000000     4.663000000     1.943000000
H     2.729000000     4.484000000     3.198000000
C     1.851000000     4.303000000     1.275000000
C     2.139000000     4.529000000    -0.099000000
H     3.152000000     4.457000000    -0.488000000
C     0.523000000     4.188000000     1.709000000
C    -0.491000000     4.487000000     0.792000000
H    -1.531000000     4.498000000     1.109000000
C    -0.170000000     4.686000000    -0.568000000
O    -1.294000000     4.699000000    -1.389000000
C    -1.532000000     3.475000000    -2.153000000
C    -2.988000000     2.982000000    -2.047000000
C    -3.489000000     2.035000000    -2.907000000
H    -2.884000000     1.533000000    -3.658000000
C    -3.743000000     3.566000000    -1.026000000
H    -3.304000000     4.272000000    -0.326000000
O    -0.996000000     3.579000000    -3.491000000
H    -0.986000000     2.722000000    -1.567000000
C     1.113000000     4.628000000    -1.040000000
C     1.401000000     4.819000000    -2.460000000
H     2.392000000     5.277000000    -2.472000000
H     0.572000000     5.415000000    -2.847000000
C     1.398000000     3.483000000    -3.185000000
C     2.606000000     2.750000000    -3.263000000
H     3.483000000     3.156000000    -2.766000000
C     0.222000000     2.908000000    -3.668000000
C     0.233000000     1.627000000    -4.213000000
H    -0.700000000     1.249000000    -4.623000000
C     1.487000000     0.935000000    -4.431000000
O     1.511000000    -0.324000000    -4.993000000
C     1.514000000    -1.448000000    -4.062000000
C     0.434000000    -2.496000000    -4.274000000
C    -0.788000000    -2.108000000    -4.790000000
H    -0.794000000    -1.077000000    -5.135000000
C     0.525000000    -3.760000000    -3.739000000
H     1.445000000    -4.119000000    -3.286000000
O     2.835000000    -1.955000000    -3.937000000
H     1.288000000    -1.097000000    -3.044000000
C     2.706000000     1.557000000    -3.994000000
C     4.001000000     0.776000000    -3.998000000
H     4.913000000     1.364000000    -4.122000000
H     4.022000000     0.122000000    -4.872000000
C     4.138000000    -0.214000000    -2.821000000
C     3.539000000    -1.471000000    -2.871000000
C     3.546000000    -2.295000000    -1.709000000
H     3.039000000    -3.254000000    -1.786000000
C     4.200000000    -1.841000000    -0.573000000
O     4.143000000    -2.610000000     0.530000000
C     3.364000000    -2.282000000     1.650000000
H     2.490000000    -1.662000000     1.401000000
C     2.587000000    -3.369000000     2.340000000
C     2.564000000    -3.564000000     3.707000000
H     3.017000000    -2.820000000     4.357000000
C     1.903000000    -4.284000000     1.569000000
H     1.757000000    -4.172000000     0.498000000
C     1.205000000    -5.381000000     2.107000000
O     0.386000000    -6.266000000     1.364000000
C     1.268000000    -5.545000000     3.473000000
H     0.611000000    -6.329000000     3.841000000
C     1.813000000    -4.608000000     4.279000000
O     1.606000000    -4.611000000     5.674000000
C     1.136000000    -3.446000000     6.286000000
C    -0.111000000    -2.971000000     5.943000000
H    -0.659000000    -3.388000000     5.101000000
C     1.845000000    -2.753000000     7.319000000
H     2.778000000    -3.201000000     7.651000000
C     1.320000000    -1.580000000     7.872000000
H     1.852000000    -1.007000000     8.627000000
C     0.102000000    -1.081000000     7.453000000
H    -0.229000000    -0.075000000     7.696000000
C    -0.618000000    -1.754000000     6.461000000
O    -1.860000000    -1.160000000     6.067000000
C    -1.921000000     0.109000000     5.504000000
C    -3.184000000     0.737000000     5.291000000
H    -4.002000000     0.309000000     5.865000000
C    -3.230000000     1.928000000     4.470000000
O    -4.521000000     2.425000000     4.157000000
C    -4.807000000     3.401000000     3.329000000
C    -5.188000000     3.149000000     1.976000000
H    -5.194000000     2.113000000     1.648000000
C    -4.924000000     4.758000000     3.821000000
H    -4.567000000     4.920000000     4.835000000
C    -5.296000000     5.785000000     2.954000000
H    -5.060000000     6.765000000     3.361000000
C    -5.600000000     5.476000000     1.616000000
H    -5.751000000     6.315000000     0.942000000
C    -5.570000000     4.189000000     1.118000000
O    -5.946000000     3.828000000    -0.117000000
C    -5.080000000     3.183000000    -0.966000000
C    -5.638000000     2.314000000    -1.846000000
H    -6.641000000     1.926000000    -1.684000000
C    -4.812000000     1.683000000    -2.829000000
O    -5.480000000     0.772000000    -3.670000000
C    -4.949000000     0.231000000    -4.786000000
C    -4.104000000    -0.869000000    -4.676000000
H    -3.986000000    -1.119000000    -3.625000000
C    -5.297000000     0.671000000    -6.040000000
H    -5.959000000     1.502000000    -6.267000000
C    -4.951000000    -0.081000000    -7.190000000
H    -5.333000000     0.154000000    -8.180000000
C    -4.112000000    -1.195000000    -7.070000000
H    -3.756000000    -1.797000000    -7.902000000
C    -3.679000000    -1.519000000    -5.806000000
O    -2.972000000    -2.700000000    -5.660000000
C    -1.815000000    -3.022000000    -4.951000000
C    -1.670000000    -4.313000000    -4.471000000
H    -2.481000000    -5.022000000    -4.620000000
C    -0.553000000    -4.664000000    -3.762000000
O    -0.304000000    -5.967000000    -3.373000000
C     0.422000000    -6.385000000    -2.254000000
C     1.492000000    -7.298000000    -2.409000000
H     1.641000000    -7.557000000    -3.454000000
C     2.161000000    -7.759000000    -1.297000000
H     2.967000000    -8.484000000    -1.384000000
C     1.727000000    -7.392000000    -0.059000000
H     2.183000000    -7.855000000     0.812000000
C     0.751000000    -6.459000000     0.095000000
C     0.011000000    -5.944000000    -0.985000000
H    -0.815000000    -5.256000000    -0.826000000
C    -2.709000000     0.337000000     0.170000000
H    -3.484000000     1.048000000     0.445000000
C    -1.442000000     0.791000000     0.156000000
H    -1.175000000     1.799000000     0.464000000
C    -0.416000000    -0.051000000    -0.288000000
C     1.001000000     0.485000000    -0.309000000
H     1.776000000     0.021000000    -0.921000000
H     1.016000000     1.525000000    -0.643000000
H     1.251000000     0.666000000     0.738000000
C    -0.680000000    -1.300000000    -0.648000000
H     0.067000000    -2.004000000    -1.008000000
C    -2.008000000    -1.819000000    -0.722000000
H    -2.296000000    -2.788000000    -1.122000000
C    -3.051000000    -0.955000000    -0.374000000
C    -4.487000000    -1.414000000    -0.520000000
O    -4.840000000    -2.329000000    -1.277000000
O    -5.301000000    -0.725000000     0.022000000
O    -8.887000000    -0.556000000     3.218000000
H    -9.704000000    -0.063000000     3.144000000
H    -8.263000000    -0.067000000     2.681000000
O    -8.885000000    -3.335000000    -2.777000000
H    -7.940000000    -3.200000000    -2.720000000
H    -9.082000000    -3.957000000    -2.077000000
O    -9.837000000    -0.733000000    -3.353000000
H   -10.711000000    -0.636000000    -2.975000000
H    -9.629000000    -1.660000000    -3.243000000
O    -7.019000000     0.433000000     1.394000000
H    -6.687000000     0.416000000     2.292000000
H    -6.373000000    -0.061000000     0.890000000
O    -3.171000000    -5.759000000     0.434000000
H    -4.116000000    -5.613000000     0.468000000
H    -3.025000000    -6.186000000    -0.410000000
O    -3.231000000    -2.627000000     3.819000000
H    -2.719000000    -1.870000000     3.534000000
H    -2.805000000    -3.375000000     3.401000000
O    -2.830000000    -6.528000000    -2.275000000
H    -2.070000000    -6.336000000    -2.824000000
H    -2.753000000    -7.462000000    -2.077000000
O    -6.558000000    -3.789000000     0.580000000
H    -5.918000000    -3.388000000    -0.008000000
H    -6.420000000    -4.731000000     0.477000000
O    -9.726000000     0.521000000     0.163000000
H    -8.837000000     0.543000000     0.517000000
H    -9.612000000     0.283000000    -0.757000000
O    -6.004000000    -2.596000000     3.411000000
H    -6.133000000    -2.922000000     2.520000000
H    -5.055000000    -2.599000000     3.532000000
O    -7.522000000    -0.422000000    -1.721000000
H    -7.916000000    -1.235000000    -2.036000000
H    -6.669000000    -0.686000000    -1.377000000
O    -5.751000000    -5.832000000    -2.720000000
H    -5.731000000    -5.609000000    -1.789000000
H    -5.664000000    -6.785000000    -2.739000000
O    -6.174000000    -3.223000000    -3.455000000
H    -5.831000000    -4.107000000    -3.584000000
H    -5.836000000    -2.957000000    -2.600000000
O    -6.215000000    -6.352000000     0.233000000
H    -6.055000000    -7.081000000     0.832000000
H    -6.984000000    -6.619000000    -0.270000000
O    -0.524000000    -1.761000000     2.480000000
H    -0.721000000    -1.535000000     1.571000000
H    -0.771000000    -2.683000000     2.556000000
O    -9.035000000    -3.076000000     2.067000000
H    -8.968000000    -2.295000000     2.617000000
H    -8.167000000    -3.165000000     1.673000000
O    -7.600000000    -2.110000000    -5.549000000
H    -8.378000000    -2.664000000    -5.488000000
H    -6.973000000    -2.509000000    -4.945000000
O    -1.781000000    -4.428000000     2.190000000
H    -1.508000000    -5.171000000     2.730000000
H    -2.292000000    -4.821000000     1.483000000
O    -9.133000000     2.130000000    -3.107000000
H    -9.361000000     2.143000000    -2.178000000
H    -8.765000000     1.259000000    -3.251000000
