218
-1474.35665
C    -0.882000000     2.711000000     4.436000000
H    -1.075000000     3.564000000     3.790000000
C     0.395000000     2.107000000     4.408000000
C     0.661000000     0.968000000     5.198000000
H     1.660000000     0.539000000     5.185000000
C     1.421000000     2.550000000     3.351000000
O     1.128000000     3.898000000     2.870000000
H     1.241000000     1.828000000     2.541000000
O     2.796000000     2.355000000     3.757000000
C     3.634000000     1.706000000     2.813000000
C     3.760000000     0.353000000     2.834000000
H     3.342000000    -0.133000000     3.712000000
C     4.279000000    -0.386000000     1.765000000
O     4.289000000    -1.707000000     1.862000000
C     4.795000000     0.312000000     0.684000000
C     5.538000000    -0.407000000    -0.500000000
H     6.369000000     0.102000000    -0.992000000
C     4.489000000    -0.893000000    -1.517000000
C     4.327000000    -0.197000000    -2.769000000
H     4.916000000     0.713000000    -2.855000000
H     5.994000000    -1.305000000    -0.078000000
C     4.778000000     1.704000000     0.683000000
H     5.157000000     2.218000000    -0.197000000
C     4.114000000     2.367000000     1.683000000
C     3.830000000     3.839000000     1.591000000
H     4.626000000     4.334000000     1.031000000
H     3.670000000     4.366000000     2.535000000
C     2.465000000     4.094000000     0.944000000
C     2.479000000     4.337000000    -0.472000000
H     3.427000000     4.319000000    -1.005000000
C     1.250000000     4.167000000     1.560000000
C     0.041000000     4.330000000     0.884000000
H    -0.948000000     4.306000000     1.334000000
C     0.108000000     4.533000000    -0.507000000
O    -1.033000000     4.686000000    -1.225000000
C    -1.498000000     3.447000000    -1.729000000
C    -2.998000000     3.142000000    -1.354000000
C    -3.646000000     2.033000000    -1.978000000
H    -3.100000000     1.560000000    -2.790000000
C    -3.615000000     3.729000000    -0.235000000
H    -3.119000000     4.493000000     0.358000000
O    -1.328000000     3.477000000    -3.153000000
H    -0.923000000     2.543000000    -1.482000000
C     1.332000000     4.501000000    -1.205000000
C     1.372000000     4.609000000    -2.780000000
H     2.310000000     5.071000000    -3.095000000
H     0.636000000     5.318000000    -3.166000000
C     1.119000000     3.225000000    -3.450000000
C     2.144000000     2.385000000    -3.798000000
H     3.149000000     2.708000000    -3.538000000
C    -0.220000000     2.805000000    -3.640000000
C    -0.496000000     1.646000000    -4.377000000
H    -1.476000000     1.190000000    -4.487000000
C     0.560000000     0.828000000    -4.772000000
O     0.225000000    -0.498000000    -5.173000000
C     0.229000000    -1.435000000    -4.038000000
C    -0.953000000    -2.375000000    -4.092000000
C    -2.148000000    -1.995000000    -4.798000000
H    -2.311000000    -1.005000000    -5.217000000
C    -0.947000000    -3.705000000    -3.621000000
H    -0.015000000    -4.036000000    -3.170000000
O     1.526000000    -2.108000000    -4.117000000
H     0.130000000    -0.791000000    -3.152000000
C     1.887000000     1.194000000    -4.515000000
C     3.027000000     0.300000000    -4.752000000
H     3.917000000     0.926000000    -4.849000000
H     2.843000000    -0.306000000    -5.642000000
C     3.328000000    -0.579000000    -3.611000000
C     2.536000000    -1.704000000    -3.327000000
C     2.878000000    -2.541000000    -2.234000000
H     2.395000000    -3.483000000    -1.986000000
C     3.814000000    -2.101000000    -1.312000000
O     3.966000000    -2.840000000    -0.174000000
C     3.334000000    -2.363000000     1.017000000
H     2.578000000    -1.634000000     0.689000000
C     2.623000000    -3.507000000     1.681000000
C     2.638000000    -3.632000000     3.075000000
H     3.225000000    -2.938000000     3.670000000
C     1.816000000    -4.357000000     0.928000000
H     1.772000000    -4.186000000    -0.145000000
C     1.160000000    -5.433000000     1.602000000
O     0.320000000    -6.365000000     0.917000000
C     1.129000000    -5.508000000     2.993000000
H     0.447000000    -6.194000000     3.489000000
C     1.947000000    -4.602000000     3.682000000
O     2.127000000    -4.712000000     5.056000000
C     1.997000000    -3.575000000     5.813000000
C     0.939000000    -2.673000000     5.719000000
H     0.067000000    -2.859000000     5.097000000
C     3.099000000    -3.237000000     6.657000000
H     4.010000000    -3.821000000     6.555000000
C     3.079000000    -2.092000000     7.483000000
H     3.881000000    -1.795000000     8.154000000
C     1.953000000    -1.308000000     7.382000000
H     2.017000000    -0.397000000     7.972000000
C     0.887000000    -1.577000000     6.578000000
O    -0.167000000    -0.716000000     6.652000000
C    -0.388000000     0.385000000     5.912000000
C    -1.614000000     1.054000000     6.023000000
H    -2.440000000     0.661000000     6.611000000
C    -1.870000000     2.200000000     5.294000000
O    -3.147000000     2.678000000     5.258000000
C    -3.716000000     3.619000000     4.410000000
C    -4.094000000     3.262000000     3.113000000
H    -3.978000000     2.225000000     2.811000000
C    -4.109000000     4.865000000     4.933000000
H    -3.766000000     5.141000000     5.927000000
C    -4.566000000     5.864000000     4.120000000
H    -4.629000000     6.895000000     4.460000000
C    -4.961000000     5.562000000     2.777000000
H    -5.341000000     6.362000000     2.147000000
C    -4.826000000     4.222000000     2.389000000
O    -5.470000000     3.838000000     1.253000000
C    -4.921000000     3.393000000     0.167000000
C    -5.563000000     2.402000000    -0.515000000
H    -6.524000000     2.033000000    -0.166000000
C    -4.977000000     1.718000000    -1.598000000
O    -5.655000000     0.698000000    -2.160000000
C    -5.571000000     0.376000000    -3.475000000
C    -4.997000000    -0.805000000    -3.857000000
H    -4.517000000    -1.406000000    -3.089000000
C    -6.162000000     1.262000000    -4.429000000
H    -6.633000000     2.202000000    -4.151000000
C    -6.156000000     0.828000000    -5.763000000
H    -6.669000000     1.440000000    -6.501000000
C    -5.592000000    -0.346000000    -6.086000000
H    -5.777000000    -0.646000000    -7.115000000
C    -4.966000000    -1.183000000    -5.186000000
O    -4.382000000    -2.370000000    -5.508000000
C    -3.256000000    -2.839000000    -4.905000000
C    -3.217000000    -4.089000000    -4.304000000
H    -4.072000000    -4.758000000    -4.364000000
C    -2.016000000    -4.611000000    -3.807000000
O    -2.149000000    -5.793000000    -3.205000000
C    -1.040000000    -6.248000000    -2.431000000
C    -0.098000000    -6.963000000    -3.144000000
H    -0.279000000    -7.175000000    -4.195000000
C     0.959000000    -7.505000000    -2.453000000
H     1.755000000    -8.047000000    -2.958000000
C     1.206000000    -7.247000000    -1.128000000
H     2.093000000    -7.629000000    -0.630000000
C     0.200000000    -6.520000000    -0.451000000
C    -0.890000000    -5.989000000    -1.097000000
H    -1.647000000    -5.461000000    -0.524000000
C    -2.732000000    -0.426000000     0.299000000
H    -3.633000000    -0.046000000     0.773000000
C    -1.630000000     0.408000000     0.416000000
H    -1.717000000     1.431000000     0.773000000
C    -0.440000000    -0.173000000     0.004000000
C     0.923000000     0.537000000     0.062000000
H     1.582000000     0.271000000    -0.767000000
H     0.773000000     1.617000000     0.008000000
H     1.490000000     0.295000000     0.964000000
C    -0.383000000    -1.466000000    -0.465000000
H     0.577000000    -1.883000000    -0.758000000
C    -1.503000000    -2.250000000    -0.621000000
H    -1.452000000    -3.273000000    -0.984000000
C    -2.778000000    -1.673000000    -0.245000000
C    -4.014000000    -2.540000000    -0.135000000
O    -3.959000000    -3.720000000    -0.268000000
O    -5.047000000    -2.056000000     0.194000000
O    -8.762000000     0.367000000    -2.149000000
H    -8.415000000    -0.136000000    -2.886000000
H    -9.447000000     0.913000000    -2.533000000
O    -5.525000000    -1.024000000     2.624000000
H    -5.643000000    -1.358000000     1.735000000
H    -6.413000000    -0.963000000     2.977000000
O    -8.788000000    -3.758000000     0.960000000
H    -8.389000000    -3.064000000     0.436000000
H    -8.970000000    -3.345000000     1.805000000
O    -4.050000000    -6.672000000    -0.144000000
H    -4.997000000    -6.812000000    -0.140000000
H    -3.949000000    -5.720000000    -0.153000000
O    -5.863000000    -4.729000000     1.450000000
H    -5.063000000    -4.343000000     1.093000000
H    -6.560000000    -4.135000000     1.172000000
O    -6.674000000    -7.176000000     0.412000000
H    -6.474000000    -6.268000000     0.639000000
H    -7.050000000    -7.546000000     1.211000000
O    -5.355000000    -6.075000000     3.754000000
H    -4.456000000    -6.400000000     3.702000000
H    -5.471000000    -5.563000000     2.953000000
O    -4.839000000    -3.823000000     5.516000000
H    -5.262000000    -4.475000000     4.958000000
H    -3.927000000    -3.814000000     5.225000000
O    -2.222000000    -3.971000000     4.692000000
H    -2.089000000    -3.064000000     4.415000000
H    -2.496000000    -4.427000000     3.896000000
O   -10.511000000    -1.933000000    -1.190000000
H   -10.542000000    -0.977000000    -1.229000000
H    -9.622000000    -2.131000000    -0.894000000
O    -7.772000000    -2.202000000    -0.802000000
H    -6.902000000    -2.256000000    -0.407000000
H    -7.805000000    -1.328000000    -1.192000000
O    -7.165000000    -7.214000000    -2.972000000
H    -6.594000000    -7.691000000    -3.574000000
H    -6.635000000    -6.475000000    -2.675000000
O    -2.263000000    -8.126000000     1.188000000
H    -1.974000000    -8.949000000     0.794000000
H    -2.843000000    -7.737000000     0.533000000
O    -6.316000000    -4.671000000    -1.802000000
H    -6.793000000    -3.845000000    -1.881000000
H    -5.433000000    -4.413000000    -1.537000000
O    -9.330000000    -6.178000000    -0.314000000
H    -9.117000000    -5.284000000    -0.045000000
H    -8.498000000    -6.543000000    -0.614000000
O    -8.481000000    -2.019000000    -3.671000000
H    -7.796000000    -2.515000000    -4.120000000
H    -8.871000000    -2.646000000    -3.062000000
O    -5.177000000    -0.704000000     5.212000000
H    -5.198000000    -1.645000000     5.383000000
H    -4.882000000    -0.632000000     4.304000000
O    -2.058000000    -1.694000000     3.129000000
H    -2.737000000    -1.146000000     2.737000000
H    -1.261000000    -1.167000000     3.071000000
O    -2.964000000    -5.079000000     2.160000000
H    -2.689000000    -4.366000000     1.584000000
H    -3.157000000    -5.805000000     1.567000000
