218
-1455.38740
C    -3.785000000     0.580000000     3.762000000
H    -4.184000000     1.591000000     3.751000000
C    -2.416000000     0.324000000     3.983000000
C    -1.941000000    -0.984000000     4.089000000
H    -0.887000000    -1.228000000     4.193000000
C    -1.296000000     1.338000000     3.732000000
O    -1.785000000     2.726000000     3.853000000
H    -0.932000000     1.217000000     2.701000000
O    -0.214000000     1.172000000     4.731000000
C     1.142000000     1.385000000     4.364000000
C     1.854000000     0.220000000     4.246000000
H     1.463000000    -0.779000000     4.424000000
C     3.170000000     0.227000000     3.732000000
O     3.795000000    -0.996000000     3.534000000
C     3.649000000     1.464000000     3.283000000
C     4.851000000     1.471000000     2.372000000
H     5.351000000     2.431000000     2.231000000
C     4.623000000     1.048000000     0.901000000
C     4.378000000     2.031000000     0.026000000
H     4.275000000     3.046000000     0.401000000
H     5.581000000     0.902000000     2.952000000
C     2.839000000     2.597000000     3.242000000
H     3.207000000     3.509000000     2.779000000
C     1.636000000     2.598000000     3.788000000
C     0.856000000     3.913000000     3.804000000
H     1.649000000     4.659000000     3.890000000
H     0.362000000     4.009000000     4.773000000
C    -0.169000000     4.129000000     2.724000000
C     0.189000000     4.691000000     1.459000000
H     1.209000000     5.050000000     1.343000000
C    -1.479000000     3.572000000     2.815000000
C    -2.353000000     3.536000000     1.710000000
H    -3.236000000     2.912000000     1.818000000
C    -2.026000000     4.260000000     0.549000000
O    -2.831000000     4.074000000    -0.494000000
C    -2.461000000     3.272000000    -1.611000000
C    -3.569000000     2.473000000    -2.260000000
C    -3.419000000     1.917000000    -3.512000000
H    -2.479000000     1.990000000    -4.053000000
C    -4.684000000     2.127000000    -1.507000000
H    -4.770000000     2.275000000    -0.434000000
O    -1.625000000     3.901000000    -2.645000000
H    -1.849000000     2.480000000    -1.155000000
C    -0.748000000     4.835000000     0.448000000
C    -0.223000000     5.522000000    -0.817000000
H     0.514000000     6.272000000    -0.522000000
H    -1.072000000     6.009000000    -1.300000000
C     0.438000000     4.527000000    -1.707000000
C     1.847000000     4.474000000    -1.684000000
H     2.462000000     4.999000000    -0.957000000
C    -0.317000000     3.712000000    -2.571000000
C     0.286000000     2.831000000    -3.381000000
H    -0.304000000     2.275000000    -4.105000000
C     1.663000000     2.717000000    -3.310000000
O     2.214000000     1.642000000    -4.056000000
C     2.592000000     0.391000000    -3.439000000
C     2.027000000    -0.763000000    -4.182000000
C     1.026000000    -0.525000000    -5.111000000
H     0.754000000     0.473000000    -5.446000000
C     2.305000000    -2.064000000    -3.788000000
H     2.979000000    -2.222000000    -2.950000000
O     3.977000000     0.322000000    -3.170000000
H     2.072000000     0.374000000    -2.470000000
C     2.459000000     3.413000000    -2.405000000
C     3.963000000     3.051000000    -2.240000000
H     4.529000000     3.897000000    -1.845000000
H     4.458000000     2.868000000    -3.196000000
C     4.164000000     1.841000000    -1.359000000
C     4.283000000     0.560000000    -1.848000000
C     4.456000000    -0.497000000    -0.942000000
H     4.317000000    -1.493000000    -1.353000000
C     4.612000000    -0.298000000     0.449000000
O     4.655000000    -1.339000000     1.289000000
C     3.574000000    -1.682000000     2.251000000
H     2.699000000    -1.183000000     1.809000000
C     3.313000000    -3.193000000     2.407000000
C     2.640000000    -3.697000000     3.501000000
H     2.395000000    -3.098000000     4.374000000
C     3.584000000    -4.079000000     1.341000000
H     3.995000000    -3.593000000     0.459000000
C     3.264000000    -5.410000000     1.414000000
O     3.107000000    -6.229000000     0.302000000
C     2.597000000    -5.922000000     2.483000000
H     2.354000000    -6.981000000     2.478000000
C     2.343000000    -5.074000000     3.560000000
O     1.707000000    -5.684000000     4.610000000
C     0.601000000    -5.019000000     5.156000000
C    -0.489000000    -4.659000000     4.358000000
H    -0.446000000    -4.908000000     3.301000000
C     0.674000000    -4.770000000     6.503000000
H     1.532000000    -5.116000000     7.073000000
C    -0.309000000    -4.045000000     7.114000000
H    -0.181000000    -3.779000000     8.160000000
C    -1.353000000    -3.513000000     6.361000000
H    -2.018000000    -2.763000000     6.780000000
C    -1.417000000    -3.822000000     4.978000000
O    -2.510000000    -3.375000000     4.300000000
C    -2.872000000    -2.038000000     4.060000000
C    -4.166000000    -1.829000000     3.741000000
H    -4.676000000    -2.783000000     3.631000000
C    -4.692000000    -0.535000000     3.556000000
O    -5.989000000    -0.465000000     3.188000000
C    -6.552000000     0.471000000     2.283000000
C    -6.714000000     0.146000000     0.923000000
H    -6.559000000    -0.872000000     0.574000000
C    -6.945000000     1.731000000     2.750000000
H    -6.855000000     1.910000000     3.818000000
C    -7.350000000     2.690000000     1.837000000
H    -7.424000000     3.736000000     2.124000000
C    -7.300000000     2.432000000     0.488000000
H    -7.572000000     3.214000000    -0.217000000
C    -6.932000000     1.188000000     0.003000000
O    -6.901000000     0.939000000    -1.369000000
C    -5.752000000     1.358000000    -2.043000000
C    -5.677000000     1.008000000    -3.422000000
H    -6.481000000     0.453000000    -3.900000000
C    -4.529000000     1.280000000    -4.129000000
O    -4.424000000     0.859000000    -5.455000000
C    -3.264000000     0.781000000    -6.237000000
C    -2.542000000    -0.412000000    -6.279000000
H    -2.982000000    -1.337000000    -5.914000000
C    -2.718000000     1.914000000    -6.772000000
H    -3.319000000     2.817000000    -6.697000000
C    -1.439000000     1.938000000    -7.342000000
H    -1.043000000     2.868000000    -7.743000000
C    -0.771000000     0.724000000    -7.351000000
H     0.237000000     0.769000000    -7.754000000
C    -1.257000000    -0.431000000    -6.818000000
O    -0.515000000    -1.562000000    -6.668000000
C     0.386000000    -1.682000000    -5.676000000
C     0.801000000    -2.960000000    -5.356000000
H     0.281000000    -3.782000000    -5.841000000
C     1.831000000    -3.158000000    -4.460000000
O     2.079000000    -4.471000000    -4.024000000
C     2.953000000    -5.008000000    -3.072000000
C     4.250000000    -5.233000000    -3.446000000
H     4.590000000    -4.968000000    -4.444000000
C     5.195000000    -5.851000000    -2.631000000
H     6.183000000    -6.047000000    -3.040000000
C     4.753000000    -6.223000000    -1.378000000
H     5.440000000    -6.732000000    -0.706000000
C     3.469000000    -5.904000000    -0.956000000
C     2.532000000    -5.294000000    -1.822000000
H     1.530000000    -5.057000000    -1.472000000
C    -1.726000000    -1.781000000     0.227000000
H    -2.806000000    -1.816000000     0.348000000
C    -1.189000000    -0.500000000     0.250000000
H    -1.845000000     0.305000000     0.572000000
C     0.166000000    -0.281000000     0.088000000
C     0.896000000     1.065000000     0.333000000
H     0.365000000     1.835000000     0.896000000
H     1.778000000     0.860000000     0.944000000
H     1.178000000     1.527000000    -0.615000000
C     0.952000000    -1.388000000    -0.270000000
H     2.034000000    -1.290000000    -0.269000000
C     0.428000000    -2.704000000    -0.237000000
H     1.015000000    -3.617000000    -0.289000000
C    -0.938000000    -2.895000000    -0.033000000
C    -1.582000000    -4.250000000    -0.137000000
O    -0.871000000    -5.244000000    -0.422000000
O    -2.740000000    -4.540000000     0.133000000
O    -1.977000000    -2.312000000    -2.971000000
H    -1.164000000    -1.843000000    -2.786000000
H    -1.693000000    -3.164000000    -3.303000000
O    -5.405000000    -6.273000000    -0.388000000
H    -5.204000000    -5.512000000     0.156000000
H    -6.347000000    -6.215000000    -0.544000000
O    -4.218000000    -5.251000000    -3.945000000
H    -5.005000000    -5.214000000    -3.401000000
H    -3.498000000    -5.325000000    -3.318000000
O    -1.757000000   -10.132000000    -2.337000000
H    -1.867000000    -9.971000000    -1.400000000
H    -1.863000000    -9.272000000    -2.742000000
O     1.435000000    -8.191000000    -3.283000000
H     1.709000000    -9.099000000    -3.415000000
H     2.253000000    -7.694000000    -3.271000000
O     0.065000000    -8.748000000     3.318000000
H     1.008000000    -8.801000000     3.166000000
H    -0.234000000    -8.056000000     2.728000000
O    -0.744000000    -4.812000000    -3.565000000
H     0.184000000    -4.617000000    -3.693000000
H    -0.777000000    -5.292000000    -2.738000000
O    -2.924000000    -6.512000000    -1.751000000
H    -2.261000000    -5.952000000    -1.348000000
H    -3.625000000    -6.559000000    -1.101000000
O    -2.962000000    -8.069000000    -4.072000000
H    -3.020000000    -7.193000000    -3.690000000
H    -3.658000000    -8.090000000    -4.729000000
O    -7.272000000    -3.348000000    -0.645000000
H    -6.416000000    -3.258000000    -1.063000000
H    -7.900000000    -3.165000000    -1.344000000
O    -4.014000000    -8.974000000     0.486000000
H    -4.537000000    -8.173000000     0.459000000
H    -4.623000000    -9.666000000     0.228000000
O    -0.102000000    -7.715000000    -1.029000000
H     0.058000000    -7.848000000    -1.964000000
H    -0.244000000    -6.772000000    -0.942000000
O    -4.369000000    -3.101000000    -1.549000000
H    -3.854000000    -2.512000000    -2.101000000
H    -3.725000000    -3.699000000    -1.170000000
O    -1.244000000    -6.774000000     1.742000000
H    -2.084000000    -6.335000000     1.613000000
H    -0.718000000    -6.514000000     0.985000000
O    -3.184000000    -7.490000000     4.048000000
H    -4.059000000    -7.203000000     3.787000000
H    -2.619000000    -7.226000000     3.322000000
O    -1.554000000    -9.885000000     0.563000000
H    -2.460000000    -9.580000000     0.512000000
H    -1.035000000    -9.084000000     0.639000000
O    -4.884000000    -3.817000000     1.224000000
H    -5.129000000    -3.071000000     0.677000000
H    -4.034000000    -4.096000000     0.883000000
O    -5.314000000    -5.750000000     3.291000000
H    -5.019000000    -5.224000000     2.548000000
H    -6.201000000    -6.021000000     3.055000000
O    -1.981000000    -4.914000000    -6.509000000
H    -2.793000000    -4.413000000    -6.430000000
H    -1.709000000    -5.074000000    -5.606000000
