218
-1449.73262
C    -3.083000000    -3.190000000    -3.055000000
H    -3.339000000    -2.755000000    -4.018000000
C    -3.178000000    -2.372000000    -1.881000000
C    -2.912000000    -3.036000000    -0.678000000
H    -3.031000000    -2.494000000     0.257000000
C    -3.603000000    -0.897000000    -1.905000000
O    -3.663000000    -0.435000000    -3.247000000
H    -2.868000000    -0.271000000    -1.379000000
O    -4.739000000    -0.614000000    -1.159000000
C    -4.699000000     0.504000000    -0.305000000
C    -4.525000000     0.148000000     1.055000000
H    -4.492000000    -0.882000000     1.399000000
C    -4.203000000     1.086000000     1.988000000
O    -3.940000000     0.514000000     3.218000000
C    -4.110000000     2.424000000     1.658000000
C    -3.759000000     3.498000000     2.665000000
H    -4.224000000     4.423000000     2.317000000
C    -2.249000000     3.674000000     2.775000000
C    -1.493000000     4.612000000     1.938000000
H    -2.009000000     5.285000000     1.257000000
H    -4.186000000     3.321000000     3.654000000
C    -4.227000000     2.723000000     0.321000000
H    -3.997000000     3.708000000    -0.078000000
C    -4.501000000     1.816000000    -0.690000000
C    -4.648000000     2.204000000    -2.110000000
H    -4.997000000     3.238000000    -2.156000000
H    -5.471000000     1.659000000    -2.577000000
C    -3.378000000     1.982000000    -2.925000000
C    -2.441000000     3.044000000    -2.997000000
H    -2.562000000     3.961000000    -2.426000000
C    -3.047000000     0.716000000    -3.560000000
C    -1.843000000     0.630000000    -4.328000000
H    -1.555000000    -0.288000000    -4.835000000
C    -1.034000000     1.705000000    -4.370000000
O     0.244000000     1.488000000    -4.879000000
C     1.247000000     1.235000000    -3.914000000
C     2.205000000    -0.015000000    -4.191000000
C     3.356000000    -0.229000000    -3.479000000
H     3.706000000     0.525000000    -2.779000000
C     1.737000000    -1.034000000    -5.021000000
H     0.738000000    -1.006000000    -5.451000000
O     1.963000000     2.483000000    -3.754000000
H     0.778000000     1.089000000    -2.930000000
C    -1.300000000     2.972000000    -3.805000000
C    -0.401000000     4.167000000    -3.930000000
H    -0.925000000     5.109000000    -4.111000000
H     0.178000000     4.092000000    -4.853000000
C     0.576000000     4.183000000    -2.769000000
C     0.175000000     4.799000000    -1.525000000
H    -0.711000000     5.428000000    -1.504000000
C     1.669000000     3.301000000    -2.724000000
C     2.492000000     3.297000000    -1.619000000
H     3.302000000     2.574000000    -1.559000000
C     2.130000000     3.992000000    -0.465000000
O     2.893000000     3.735000000     0.610000000
C     2.443000000     2.779000000     1.552000000
C     3.675000000     1.890000000     1.993000000
C     4.902000000     1.869000000     1.324000000
H     5.053000000     2.600000000     0.534000000
C     3.427000000     0.922000000     2.994000000
H     2.443000000     1.012000000     3.445000000
O     1.859000000     3.400000000     2.687000000
H     1.705000000     2.094000000     1.110000000
C     0.951000000     4.728000000    -0.397000000
C     0.677000000     5.423000000     0.926000000
H     0.018000000     6.261000000     0.690000000
H     1.602000000     5.752000000     1.404000000
C    -0.107000000     4.491000000     1.866000000
C     0.526000000     3.497000000     2.650000000
C    -0.180000000     2.587000000     3.446000000
H     0.261000000     1.801000000     4.054000000
C    -1.549000000     2.693000000     3.532000000
O    -2.225000000     1.724000000     4.261000000
C    -2.536000000     0.509000000     3.672000000
H    -1.826000000     0.399000000     2.839000000
C    -2.133000000    -0.688000000     4.665000000
C    -2.844000000    -1.868000000     4.554000000
H    -3.676000000    -2.065000000     3.883000000
C    -1.027000000    -0.598000000     5.469000000
H    -0.627000000     0.391000000     5.678000000
C    -0.598000000    -1.691000000     6.275000000
O     0.469000000    -1.612000000     7.186000000
C    -1.279000000    -2.891000000     6.172000000
H    -0.887000000    -3.744000000     6.719000000
C    -2.418000000    -2.955000000     5.370000000
O    -3.058000000    -4.127000000     5.222000000
C    -3.536000000    -4.655000000     4.065000000
C    -2.638000000    -4.694000000     2.941000000
H    -1.572000000    -4.505000000     3.043000000
C    -4.815000000    -5.036000000     3.878000000
H    -5.565000000    -4.983000000     4.663000000
C    -5.252000000    -5.400000000     2.585000000
H    -6.291000000    -5.660000000     2.399000000
C    -4.379000000    -5.443000000     1.474000000
H    -4.825000000    -5.622000000     0.499000000
C    -3.097000000    -4.919000000     1.648000000
O    -2.149000000    -4.965000000     0.654000000
C    -2.424000000    -4.336000000    -0.599000000
C    -2.285000000    -5.071000000    -1.780000000
H    -1.917000000    -6.094000000    -1.752000000
C    -2.511000000    -4.448000000    -2.976000000
O    -2.225000000    -5.108000000    -4.165000000
C    -1.564000000    -4.444000000    -5.196000000
C    -0.176000000    -4.309000000    -5.146000000
H     0.426000000    -4.742000000    -4.351000000
C    -2.258000000    -3.971000000    -6.250000000
H    -3.336000000    -4.111000000    -6.260000000
C    -1.581000000    -3.159000000    -7.233000000
H    -2.116000000    -2.772000000    -8.097000000
C    -0.203000000    -2.925000000    -7.073000000
H     0.328000000    -2.398000000    -7.862000000
C     0.466000000    -3.567000000    -6.048000000
O     1.840000000    -3.264000000    -5.953000000
C     2.423000000    -2.252000000    -5.156000000
C     3.643000000    -2.371000000    -4.567000000
H     4.252000000    -3.266000000    -4.667000000
C     4.104000000    -1.372000000    -3.735000000
O     5.293000000    -1.586000000    -3.128000000
C     6.098000000    -0.590000000    -2.632000000
C     6.122000000    -0.383000000    -1.264000000
H     5.489000000    -1.045000000    -0.679000000
C     7.003000000     0.070000000    -3.465000000
H     6.945000000    -0.127000000    -4.533000000
C     7.719000000     1.158000000    -2.927000000
H     8.434000000     1.652000000    -3.580000000
C     7.721000000     1.401000000    -1.575000000
H     8.298000000     2.267000000    -1.263000000
C     6.962000000     0.610000000    -0.713000000
O     7.009000000     0.821000000     0.683000000
C     5.867000000     0.831000000     1.505000000
C     5.673000000    -0.003000000     2.594000000
H     6.441000000    -0.771000000     2.550000000
C     4.482000000     0.015000000     3.366000000
O     4.268000000    -0.921000000     4.354000000
C     3.495000000    -0.587000000     5.442000000
C     3.915000000     0.468000000     6.287000000
H     4.800000000     1.056000000     6.056000000
C     3.233000000     0.835000000     7.420000000
H     3.571000000     1.711000000     7.968000000
C     2.004000000     0.199000000     7.651000000
H     1.347000000     0.523000000     8.454000000
C     1.555000000    -0.876000000     6.841000000
C     2.281000000    -1.276000000     5.690000000
H     2.071000000    -2.065000000     4.972000000
C     0.608000000    -2.186000000    -1.052000000
H     0.794000000    -2.781000000    -1.943000000
C     0.024000000    -0.920000000    -1.097000000
H    -0.272000000    -0.513000000    -2.061000000
C    -0.124000000    -0.159000000     0.077000000
C    -0.845000000     1.243000000    -0.050000000
H    -0.480000000     1.970000000     0.679000000
H    -0.735000000     1.665000000    -1.051000000
H    -1.889000000     1.022000000     0.181000000
C     0.284000000    -0.718000000     1.292000000
H     0.003000000    -0.123000000     2.157000000
C     0.804000000    -1.983000000     1.355000000
H     0.989000000    -2.385000000     2.348000000
C     0.991000000    -2.694000000     0.199000000
C     1.553000000    -4.093000000     0.222000000
O     1.821000000    -4.633000000     1.256000000
O     1.751000000    -4.629000000    -0.795000000
O    -2.008000000    -7.701000000     0.885000000
H    -2.500000000    -7.847000000     1.693000000
H    -1.643000000    -6.821000000     0.982000000
O     4.189000000    -9.571000000    -1.614000000
H     3.232000000    -9.571000000    -1.585000000
H     4.444000000    -8.821000000    -1.077000000
O     6.687000000    -4.358000000     4.041000000
H     6.133000000    -3.648000000     3.716000000
H     6.070000000    -5.031000000     4.328000000
O     1.301000000    -7.323000000    -0.045000000
H     1.258000000    -6.388000000    -0.245000000
H     1.323000000    -7.363000000     0.911000000
O     5.035000000    -5.658000000    -4.623000000
H     4.445000000    -5.548000000    -5.369000000
H     4.453000000    -5.826000000    -3.881000000
O     5.523000000    -6.809000000    -1.613000000
H     4.802000000    -6.423000000    -2.110000000
H     5.268000000    -6.697000000    -0.697000000
O    -0.052000000    -9.563000000     1.805000000
H    -0.760000000    -9.026000000     1.449000000
H     0.052000000   -10.272000000     1.171000000
O     5.146000000    -3.141000000     1.367000000
H     4.637000000    -3.380000000     0.593000000
H     6.044000000    -3.059000000     1.047000000
O    -0.508000000    -7.297000000     4.081000000
H    -1.416000000    -7.532000000     3.889000000
H    -0.523000000    -7.007000000     4.993000000
O     4.420000000    -6.771000000     1.041000000
H     3.644000000    -7.331000000     1.066000000
H     4.078000000    -5.884000000     1.148000000
O     4.256000000    -3.987000000    -0.981000000
H     4.553000000    -3.875000000    -1.884000000
H     3.333000000    -4.228000000    -1.061000000
O     6.879000000    -7.631000000     1.075000000
H     7.391000000    -6.893000000     1.405000000
H     5.970000000    -7.338000000     1.135000000
O     1.192000000    -7.392000000    -4.323000000
H     0.253000000    -7.231000000    -4.408000000
H     1.479000000    -7.614000000    -5.209000000
O     1.808000000    -6.887000000     2.663000000
H     1.143000000    -6.884000000     3.352000000
H     1.615000000    -6.108000000     2.141000000
O     1.411000000    -9.240000000    -2.065000000
H     1.279000000    -8.742000000    -1.258000000
H     1.555000000    -8.573000000    -2.737000000
O     3.119000000    -6.169000000    -2.773000000
H     2.403000000    -6.418000000    -3.358000000
H     2.687000000    -5.722000000    -2.045000000
O     3.091000000    -9.540000000     1.146000000
H     2.188000000    -9.224000000     1.101000000
H     3.031000000   -10.469000000     0.926000000
O     4.000000000    -5.493000000     5.309000000
H     3.624000000    -6.370000000     5.240000000
H     3.495000000    -4.966000000     4.690000000
O     3.217000000    -3.687000000     3.532000000
H     4.009000000    -3.330000000     3.130000000
H     2.648000000    -3.901000000     2.792000000
