218
-1484.31748
C    -3.173000000    -2.806000000    -3.776000000
H    -3.427000000    -2.079000000    -4.543000000
C    -3.345000000    -2.408000000    -2.433000000
C    -2.949000000    -3.215000000    -1.426000000
H    -2.754000000    -2.753000000    -0.462000000
C    -3.657000000    -0.948000000    -2.071000000
O    -3.972000000    -0.171000000    -3.215000000
H    -2.727000000    -0.551000000    -1.637000000
O    -4.707000000    -0.860000000    -1.095000000
C    -4.501000000    -0.019000000    -0.041000000
C    -4.094000000    -0.560000000     1.150000000
H    -4.013000000    -1.626000000     1.347000000
C    -3.893000000     0.332000000     2.211000000
O    -3.494000000    -0.264000000     3.386000000
C    -3.968000000     1.709000000     2.074000000
C    -3.655000000     2.665000000     3.178000000
H    -4.183000000     3.608000000     3.019000000
C    -2.174000000     2.920000000     3.250000000
C    -1.571000000     4.048000000     2.636000000
H    -2.238000000     4.713000000     2.093000000
H    -3.981000000     2.304000000     4.155000000
C    -4.308000000     2.207000000     0.788000000
H    -4.233000000     3.269000000     0.570000000
C    -4.573000000     1.359000000    -0.273000000
C    -4.936000000     1.938000000    -1.660000000
H    -5.326000000     2.957000000    -1.615000000
H    -5.732000000     1.321000000    -2.082000000
C    -3.834000000     2.142000000    -2.639000000
C    -3.163000000     3.336000000    -2.712000000
H    -3.534000000     4.162000000    -2.109000000
C    -3.359000000     1.063000000    -3.392000000
C    -2.186000000     1.226000000    -4.172000000
H    -1.735000000     0.327000000    -4.584000000
C    -1.510000000     2.414000000    -4.162000000
O    -0.213000000     2.400000000    -4.690000000
C     0.877000000     2.049000000    -3.776000000
C     1.822000000     1.011000000    -4.416000000
C     3.144000000     0.914000000    -3.959000000
H     3.491000000     1.657000000    -3.245000000
C     1.350000000     0.031000000    -5.330000000
H     0.274000000    -0.055000000    -5.458000000
O     1.469000000     3.225000000    -3.433000000
H     0.472000000     1.588000000    -2.864000000
C    -1.946000000     3.482000000    -3.345000000
C    -1.073000000     4.747000000    -3.013000000
H    -1.724000000     5.602000000    -2.821000000
H    -0.565000000     5.078000000    -3.921000000
C     0.038000000     4.452000000    -1.971000000
C    -0.172000000     4.945000000    -0.686000000
H    -1.139000000     5.422000000    -0.552000000
C     1.205000000     3.740000000    -2.186000000
C     2.145000000     3.614000000    -1.198000000
H     3.123000000     3.169000000    -1.364000000
C     1.919000000     4.074000000     0.073000000
O     2.851000000     3.619000000     1.030000000
C     2.409000000     2.689000000     1.996000000
C     3.418000000     1.566000000     2.296000000
C     4.002000000     0.916000000     1.217000000
H     3.866000000     1.274000000     0.200000000
C     3.600000000     1.035000000     3.567000000
H     3.093000000     1.462000000     4.428000000
O     1.952000000     3.417000000     3.170000000
H     1.541000000     2.261000000     1.472000000
C     0.789000000     4.851000000     0.333000000
C     0.437000000     5.334000000     1.725000000
H    -0.269000000     6.164000000     1.656000000
H     1.372000000     5.674000000     2.174000000
C    -0.161000000     4.237000000     2.584000000
C     0.595000000     3.384000000     3.420000000
C     0.053000000     2.306000000     4.084000000
H     0.675000000     1.530000000     4.522000000
C    -1.305000000     2.118000000     3.980000000
O    -1.846000000     0.977000000     4.539000000
C    -2.094000000    -0.164000000     3.663000000
H    -1.523000000    -0.112000000     2.724000000
C    -1.565000000    -1.394000000     4.366000000
C    -1.876000000    -2.703000000     3.919000000
H    -2.477000000    -2.887000000     3.032000000
C    -0.649000000    -1.265000000     5.420000000
H    -0.302000000    -0.316000000     5.821000000
C    -0.105000000    -2.376000000     6.048000000
O     0.747000000    -2.167000000     7.128000000
C    -0.503000000    -3.644000000     5.627000000
H    -0.158000000    -4.577000000     6.064000000
C    -1.338000000    -3.837000000     4.530000000
O    -1.576000000    -5.145000000     4.163000000
C    -2.336000000    -5.463000000     3.023000000
C    -1.844000000    -5.374000000     1.761000000
H    -0.811000000    -5.111000000     1.548000000
C    -3.710000000    -5.682000000     3.164000000
H    -4.036000000    -5.733000000     4.199000000
C    -4.539000000    -5.867000000     2.036000000
H    -5.603000000    -6.037000000     2.183000000
C    -4.018000000    -5.570000000     0.760000000
H    -4.613000000    -5.780000000    -0.125000000
C    -2.656000000    -5.429000000     0.644000000
O    -1.988000000    -5.217000000    -0.558000000
C    -2.439000000    -4.491000000    -1.655000000
C    -2.134000000    -4.850000000    -3.006000000
H    -1.560000000    -5.740000000    -3.251000000
C    -2.448000000    -3.965000000    -4.030000000
O    -2.027000000    -4.297000000    -5.271000000
C    -1.391000000    -3.319000000    -6.065000000
C    -0.018000000    -2.992000000    -5.971000000
H     0.589000000    -3.457000000    -5.199000000
C    -2.171000000    -2.755000000    -7.045000000
H    -3.236000000    -2.967000000    -7.074000000
C    -1.642000000    -1.884000000    -7.958000000
H    -2.333000000    -1.472000000    -8.689000000
C    -0.246000000    -1.790000000    -8.020000000
H     0.161000000    -1.242000000    -8.867000000
C     0.530000000    -2.208000000    -6.951000000
O     1.886000000    -1.834000000    -6.820000000
C     2.207000000    -0.857000000    -5.960000000
C     3.503000000    -0.852000000    -5.579000000
H     4.171000000    -1.509000000    -6.129000000
C     4.035000000     0.065000000    -4.632000000
O     5.384000000     0.160000000    -4.400000000
C     5.801000000     0.431000000    -3.162000000
C     5.532000000    -0.451000000    -2.086000000
H     5.045000000    -1.392000000    -2.330000000
C     6.607000000     1.523000000    -2.955000000
H     6.823000000     2.203000000    -3.776000000
C     7.035000000     1.922000000    -1.699000000
H     7.575000000     2.853000000    -1.546000000
C     6.640000000     1.160000000    -0.582000000
H     6.974000000     1.511000000     0.391000000
C     5.913000000    -0.051000000    -0.785000000
O     5.506000000    -0.782000000     0.313000000
C     4.786000000    -0.204000000     1.329000000
C     5.032000000    -0.744000000     2.615000000
H     5.732000000    -1.568000000     2.729000000
C     4.438000000    -0.036000000     3.699000000
O     4.785000000    -0.511000000     4.954000000
C     4.010000000    -0.677000000     6.070000000
C     4.574000000    -0.498000000     7.300000000
H     5.606000000    -0.159000000     7.338000000
C     3.857000000    -0.737000000     8.520000000
H     4.201000000    -0.526000000     9.529000000
C     2.648000000    -1.367000000     8.354000000
H     1.994000000    -1.607000000     9.188000000
C     1.998000000    -1.477000000     7.113000000
C     2.684000000    -1.149000000     5.968000000
H     2.343000000    -1.334000000     4.952000000
C     1.154000000    -2.499000000    -1.116000000
H     1.223000000    -3.057000000    -2.046000000
C     0.540000000    -1.222000000    -1.077000000
H     0.216000000    -0.790000000    -2.021000000
C     0.437000000    -0.451000000     0.108000000
C    -0.289000000     0.866000000     0.112000000
H    -0.782000000     0.935000000     1.084000000
H     0.393000000     1.718000000     0.087000000
H    -1.136000000     0.930000000    -0.575000000
C     0.874000000    -1.055000000     1.316000000
H     0.659000000    -0.551000000     2.255000000
C     1.416000000    -2.374000000     1.279000000
H     1.774000000    -2.851000000     2.188000000
C     1.546000000    -3.120000000     0.094000000
C     2.170000000    -4.440000000     0.050000000
O     2.389000000    -5.019000000     1.099000000
O     2.563000000    -5.006000000    -0.936000000
O     5.003000000    -8.273000000    -4.353000000
H     5.341000000    -7.474000000    -3.947000000
H     4.076000000    -8.289000000    -4.115000000
O     4.671000000    -8.338000000     3.174000000
H     4.698000000    -7.427000000     2.881000000
H     4.575000000    -8.281000000     4.125000000
O    -1.365000000    -8.715000000    -1.455000000
H    -1.613000000    -8.828000000    -0.538000000
H    -0.486000000    -8.337000000    -1.421000000
O     1.087000000    -7.490000000    -1.236000000
H     1.489000000    -6.621000000    -1.209000000
H     1.113000000    -7.794000000    -0.329000000
O     5.067000000    -4.002000000    -4.886000000
H     4.791000000    -3.869000000    -5.793000000
H     4.270000000    -4.277000000    -4.432000000
O     5.868000000    -6.760000000    -2.282000000
H     6.629000000    -6.274000000    -1.965000000
H     5.290000000    -6.821000000    -1.522000000
O     1.572000000   -10.591000000     1.523000000
H     1.208000000    -9.715000000     1.650000000
H     2.097000000   -10.520000000     0.726000000
O     6.017000000    -3.630000000     0.845000000
H     5.634000000    -3.946000000     0.027000000
H     5.787000000    -2.701000000     0.874000000
O     1.088000000    -6.804000000     4.754000000
H     0.428000000    -6.381000000     4.204000000
H     1.394000000    -6.109000000     5.337000000
O     7.725000000    -5.411000000     2.205000000
H     7.334000000    -4.767000000     1.614000000
H     7.993000000    -4.902000000     2.970000000
O     3.813000000    -7.218000000     0.025000000
H     3.233000000    -7.518000000     0.725000000
H     3.440000000    -6.381000000    -0.252000000
O     4.893000000    -4.045000000    -1.372000000
H     5.217000000    -4.265000000    -2.245000000
H     4.037000000    -4.472000000    -1.319000000
O     7.555000000    -8.009000000     1.420000000
H     7.814000000    -7.226000000     1.905000000
H     6.622000000    -7.886000000     1.246000000
O     1.467000000    -7.523000000     1.582000000
H     1.663000000    -7.724000000     2.497000000
H     1.712000000    -6.603000000     1.481000000
O     2.337000000    -7.846000000    -3.860000000
H     1.620000000    -7.828000000    -3.227000000
H     1.905000000    -7.813000000    -4.713000000
O     2.790000000    -4.998000000    -3.486000000
H     2.833000000    -5.942000000    -3.636000000
H     2.699000000    -4.911000000    -2.537000000
O     2.877000000    -9.873000000    -0.888000000
H     2.980000000    -8.921000000    -0.868000000
H     2.742000000   -10.080000000    -1.812000000
O     4.984000000    -4.183000000     4.832000000
H     4.083000000    -4.354000000     5.107000000
H     5.047000000    -4.573000000     3.961000000
O     4.668000000    -5.624000000     2.629000000
H     5.438000000    -5.246000000     2.204000000
H     3.937000000    -5.380000000     2.061000000
