218
-1443.63670
C    -4.409000000     1.585000000     2.078000000
H    -4.185000000     2.428000000     1.429000000
C    -3.410000000     1.146000000     2.914000000
C    -3.610000000     0.034000000     3.699000000
H    -2.825000000    -0.394000000     4.318000000
C    -2.104000000     1.899000000     2.990000000
O    -2.282000000     3.315000000     2.722000000
H    -1.416000000     1.453000000     2.257000000
O    -1.468000000     1.712000000     4.244000000
C    -0.055000000     1.516000000     4.315000000
C     0.418000000     0.251000000     4.710000000
H    -0.222000000    -0.565000000     5.036000000
C     1.735000000    -0.072000000     4.592000000
O     2.105000000    -1.422000000     4.569000000
C     2.601000000     0.950000000     4.272000000
C     4.004000000     0.590000000     3.925000000
H     4.656000000     1.457000000     4.046000000
C     4.024000000     0.097000000     2.469000000
C     4.447000000     0.993000000     1.558000000
H     4.604000000     2.043000000     1.793000000
H     4.355000000    -0.294000000     4.463000000
C     2.183000000     2.199000000     3.956000000
H     2.930000000     2.936000000     3.675000000
C     0.819000000     2.552000000     3.908000000
C     0.359000000     3.961000000     3.802000000
H     1.037000000     4.760000000     4.105000000
H    -0.499000000     4.140000000     4.454000000
C    -0.065000000     4.139000000     2.381000000
C     0.864000000     4.542000000     1.416000000
H     1.891000000     4.621000000     1.763000000
C    -1.387000000     3.867000000     1.901000000
C    -1.710000000     3.990000000     0.537000000
H    -2.692000000     3.650000000     0.219000000
C    -0.720000000     4.413000000    -0.355000000
O    -1.012000000     4.412000000    -1.701000000
C    -0.519000000     3.363000000    -2.619000000
C    -1.635000000     3.091000000    -3.610000000
C    -1.327000000     2.734000000    -4.935000000
H    -0.286000000     2.737000000    -5.247000000
C    -2.947000000     3.052000000    -3.161000000
H    -3.120000000     3.055000000    -2.088000000
O     0.695000000     3.752000000    -3.342000000
H    -0.265000000     2.471000000    -2.026000000
C     0.589000000     4.657000000     0.067000000
C     1.692000000     5.175000000    -0.951000000
H     2.419000000     5.789000000    -0.416000000
H     1.260000000     5.778000000    -1.753000000
C     2.366000000     3.948000000    -1.612000000
C     3.495000000     3.385000000    -1.031000000
H     3.909000000     3.839000000    -0.134000000
C     1.874000000     3.290000000    -2.767000000
C     2.489000000     2.194000000    -3.274000000
H     2.030000000     1.707000000    -4.130000000
C     3.649000000     1.749000000    -2.739000000
O     4.078000000     0.518000000    -3.165000000
C     3.588000000    -0.611000000    -2.379000000
C     3.131000000    -1.751000000    -3.248000000
C     2.285000000    -1.436000000    -4.266000000
H     2.150000000    -0.374000000    -4.451000000
C     3.253000000    -3.064000000    -2.791000000
H     4.016000000    -3.303000000    -2.055000000
O     4.568000000    -1.059000000    -1.479000000
H     2.709000000    -0.184000000    -1.874000000
C     4.164000000     2.294000000    -1.560000000
C     5.268000000     1.672000000    -0.762000000
H     5.794000000     2.443000000    -0.195000000
H     5.955000000     1.131000000    -1.417000000
C     4.629000000     0.624000000     0.245000000
C     4.417000000    -0.669000000    -0.161000000
C     4.123000000    -1.619000000     0.796000000
H     3.938000000    -2.638000000     0.466000000
C     3.856000000    -1.245000000     2.082000000
O     3.515000000    -2.176000000     2.960000000
C     2.067000000    -2.086000000     3.329000000
H     1.608000000    -1.434000000     2.571000000
C     1.367000000    -3.441000000     3.325000000
C     0.391000000    -3.797000000     4.288000000
H     0.342000000    -3.260000000     5.232000000
C     1.314000000    -4.163000000     2.113000000
H     1.949000000    -3.755000000     1.331000000
C     0.432000000    -5.211000000     1.890000000
O     0.364000000    -5.884000000     0.693000000
C    -0.486000000    -5.532000000     2.900000000
H    -1.135000000    -6.392000000     2.756000000
C    -0.523000000    -4.739000000     4.049000000
O    -1.381000000    -5.033000000     5.039000000
C    -2.402000000    -4.217000000     5.434000000
C    -3.215000000    -3.479000000     4.571000000
H    -3.108000000    -3.648000000     3.503000000
C    -2.638000000    -4.064000000     6.836000000
H    -1.931000000    -4.558000000     7.498000000
C    -3.596000000    -3.206000000     7.360000000
H    -3.753000000    -3.117000000     8.432000000
C    -4.370000000    -2.402000000     6.470000000
H    -5.053000000    -1.651000000     6.858000000
C    -4.104000000    -2.518000000     5.140000000
O    -4.994000000    -1.858000000     4.327000000
C    -4.727000000    -0.757000000     3.526000000
C    -5.758000000    -0.333000000     2.605000000
H    -6.641000000    -0.959000000     2.498000000
C    -5.641000000     0.896000000     1.947000000
O    -6.639000000     1.272000000     1.003000000
C    -6.450000000     2.144000000    -0.053000000
C    -6.036000000     1.690000000    -1.301000000
H    -6.042000000     0.612000000    -1.440000000
C    -6.561000000     3.480000000     0.223000000
H    -6.959000000     3.698000000     1.210000000
C    -6.255000000     4.496000000    -0.746000000
H    -6.292000000     5.570000000    -0.582000000
C    -5.787000000     4.056000000    -1.988000000
H    -5.536000000     4.865000000    -2.669000000
C    -5.699000000     2.695000000    -2.231000000
O    -5.178000000     2.228000000    -3.487000000
C    -3.973000000     2.554000000    -3.981000000
C    -3.655000000     2.229000000    -5.313000000
H    -4.348000000     1.807000000    -6.037000000
C    -2.315000000     2.279000000    -5.740000000
O    -2.066000000     1.880000000    -7.020000000
C    -0.922000000     1.003000000    -7.271000000
C    -0.656000000    -0.085000000    -6.512000000
H    -1.385000000    -0.431000000    -5.784000000
C     0.074000000     1.370000000    -8.207000000
H    -0.163000000     2.249000000    -8.801000000
C     1.280000000     0.648000000    -8.398000000
H     1.972000000     1.060000000    -9.127000000
C     1.461000000    -0.513000000    -7.710000000
H     2.275000000    -1.227000000    -7.808000000
C     0.564000000    -0.878000000    -6.669000000
O     0.755000000    -2.156000000    -6.089000000
C     1.551000000    -2.382000000    -4.988000000
C     1.800000000    -3.756000000    -4.639000000
H     1.255000000    -4.527000000    -5.178000000
C     2.627000000    -4.098000000    -3.528000000
O     2.879000000    -5.397000000    -3.212000000
C     2.859000000    -5.957000000    -1.931000000
C     3.909000000    -6.652000000    -1.441000000
H     4.747000000    -6.922000000    -2.079000000
C     3.833000000    -7.087000000    -0.152000000
H     4.695000000    -7.608000000     0.255000000
C     2.627000000    -6.864000000     0.598000000
H     2.406000000    -7.333000000     1.554000000
C     1.533000000    -6.184000000     0.011000000
C     1.751000000    -5.555000000    -1.157000000
H     0.946000000    -4.969000000    -1.593000000
C    -2.427000000    -0.405000000    -1.914000000
H    -3.459000000    -0.152000000    -2.147000000
C    -1.630000000     0.396000000    -1.127000000
H    -2.217000000     1.188000000    -0.668000000
C    -0.307000000     0.106000000    -0.873000000
C     0.575000000     1.009000000    -0.067000000
H     1.346000000     1.396000000    -0.737000000
H     0.070000000     1.833000000     0.442000000
H     0.983000000     0.428000000     0.763000000
C     0.145000000    -1.163000000    -1.261000000
H     1.093000000    -1.525000000    -0.871000000
C    -0.572000000    -1.934000000    -2.088000000
H    -0.121000000    -2.857000000    -2.443000000
C    -1.870000000    -1.558000000    -2.451000000
C    -2.747000000    -2.483000000    -3.253000000
O    -2.481000000    -3.666000000    -3.180000000
O    -3.734000000    -2.126000000    -3.864000000
O    -3.999000000    -6.159000000     0.834000000
H    -3.307000000    -6.503000000     1.400000000
H    -3.554000000    -5.527000000     0.269000000
O    -3.994000000    -7.872000000    -3.164000000
H    -3.144000000    -7.624000000    -3.527000000
H    -4.531000000    -7.085000000    -3.253000000
O    -4.982000000    -5.501000000    -4.179000000
H    -4.585000000    -4.740000000    -3.756000000
H    -5.122000000    -5.226000000    -5.085000000
O    -8.561000000    -1.926000000     0.358000000
H    -7.658000000    -2.060000000     0.067000000
H    -9.030000000    -2.700000000     0.048000000
O    -5.293000000    -2.173000000    -5.928000000
H    -5.572000000    -1.272000000    -5.767000000
H    -4.847000000    -2.434000000    -5.123000000
O    -1.772000000    -6.047000000    -4.178000000
H    -2.224000000    -5.220000000    -4.008000000
H    -1.255000000    -6.204000000    -3.388000000
O    -8.389000000    -3.990000000    -3.202000000
H    -7.536000000    -3.643000000    -2.941000000
H    -8.187000000    -4.644000000    -3.871000000
O    -2.793000000    -5.899000000    -6.876000000
H    -2.479000000    -5.945000000    -5.973000000
H    -3.035000000    -4.982000000    -6.999000000
O    -3.619000000    -2.855000000    -7.827000000
H    -3.268000000    -2.105000000    -8.308000000
H    -4.283000000    -2.480000000    -7.249000000
O    -3.093000000    -0.752000000    -9.192000000
H    -3.960000000    -0.402000000    -8.984000000
H    -2.632000000    -0.020000000    -9.601000000
O    -0.308000000    -3.652000000    -8.386000000
H    -0.227000000    -2.940000000    -9.020000000
H    -0.504000000    -3.213000000    -7.558000000
O    -6.842000000    -4.605000000    -6.694000000
H    -6.482000000    -3.762000000    -6.416000000
H    -6.879000000    -4.547000000    -7.648000000
O    -5.439000000    -2.569000000    -0.451000000
H    -5.803000000    -3.453000000    -0.504000000
H    -4.587000000    -2.686000000    -0.031000000
O    -2.513000000    -4.214000000    -0.602000000
H    -1.910000000    -3.473000000    -0.556000000
H    -2.521000000    -4.460000000    -1.527000000
O    -7.467000000     0.452000000    -4.211000000
H    -6.847000000     1.134000000    -3.953000000
H    -7.105000000    -0.353000000    -3.842000000
O    -8.268000000    -5.903000000    -5.041000000
H    -7.675000000    -5.406000000    -5.604000000
H    -8.312000000    -6.769000000    -5.446000000
O    -6.567000000    -5.291000000    -0.813000000
H    -6.564000000    -5.608000000     0.090000000
H    -6.433000000    -6.077000000    -1.343000000
O    -6.023000000    -1.562000000    -2.932000000
H    -5.111000000    -1.795000000    -3.110000000
H    -6.104000000    -1.625000000    -1.980000000
O    -1.358000000    -7.138000000    -1.120000000
H    -0.846000000    -6.665000000    -0.463000000
H    -1.999000000    -7.634000000    -0.612000000
