218
-1440.91351
C    -4.193000000     1.613000000     2.603000000
H    -3.750000000     2.479000000     2.117000000
C    -3.386000000     0.889000000     3.474000000
C    -3.867000000    -0.310000000     4.051000000
H    -3.113000000    -0.830000000     4.637000000
C    -1.987000000     1.445000000     3.713000000
O    -1.963000000     2.958000000     3.759000000
H    -1.413000000     1.020000000     2.876000000
O    -1.432000000     0.935000000     4.956000000
C    -0.159000000     0.379000000     4.900000000
C    -0.021000000    -0.946000000     4.478000000
H    -0.785000000    -1.712000000     4.377000000
C     1.249000000    -1.497000000     4.091000000
O     1.200000000    -2.790000000     3.589000000
C     2.365000000    -0.660000000     4.085000000
C     3.740000000    -1.265000000     3.732000000
H     4.542000000    -0.730000000     4.245000000
C     4.098000000    -1.323000000     2.214000000
C     4.634000000    -0.175000000     1.630000000
H     4.824000000     0.666000000     2.291000000
H     3.868000000    -2.286000000     4.098000000
C     2.239000000     0.726000000     4.447000000
H     3.170000000     1.280000000     4.536000000
C     0.962000000     1.215000000     4.770000000
C     0.835000000     2.720000000     4.973000000
H     1.707000000     3.245000000     5.369000000
H     0.026000000     3.004000000     5.649000000
C     0.539000000     3.404000000     3.638000000
C     1.568000000     3.950000000     2.834000000
H     2.559000000     3.992000000     3.277000000
C    -0.810000000     3.552000000     3.184000000
C    -1.040000000     4.080000000     1.903000000
H    -2.092000000     4.116000000     1.633000000
C    -0.017000000     4.670000000     1.211000000
O    -0.412000000     5.174000000    -0.026000000
C    -0.050000000     4.394000000    -1.166000000
C    -1.094000000     4.282000000    -2.244000000
C    -0.803000000     3.995000000    -3.609000000
H     0.176000000     4.027000000    -4.080000000
C    -2.446000000     4.332000000    -1.784000000
H    -2.792000000     4.569000000    -0.782000000
O     1.223000000     4.722000000    -1.713000000
H     0.033000000     3.325000000    -0.920000000
C     1.314000000     4.480000000     1.591000000
C     2.476000000     5.020000000     0.734000000
H     3.364000000     5.252000000     1.325000000
H     2.258000000     5.994000000     0.292000000
C     2.954000000     3.960000000    -0.313000000
C     4.030000000     3.066000000    -0.054000000
H     4.572000000     3.209000000     0.878000000
C     2.234000000     3.822000000    -1.467000000
C     2.638000000     2.851000000    -2.392000000
H     2.014000000     2.728000000    -3.274000000
C     3.650000000     1.961000000    -2.060000000
O     3.762000000     0.848000000    -2.857000000
C     3.390000000    -0.490000000    -2.408000000
C     2.798000000    -1.303000000    -3.595000000
C     1.783000000    -0.687000000    -4.346000000
H     1.520000000     0.330000000    -4.064000000
C     3.133000000    -2.620000000    -3.949000000
H     4.024000000    -3.103000000    -3.553000000
O     4.500000000    -1.179000000    -1.853000000
H     2.631000000    -0.285000000    -1.638000000
C     4.382000000     2.054000000    -0.858000000
C     5.474000000     1.086000000    -0.422000000
H     6.271000000     1.559000000     0.157000000
H     6.039000000     0.790000000    -1.308000000
C     4.918000000    -0.193000000     0.252000000
C     4.554000000    -1.299000000    -0.497000000
C     4.085000000    -2.454000000     0.119000000
H     3.724000000    -3.281000000    -0.487000000
C     3.713000000    -2.418000000     1.457000000
O     2.907000000    -3.411000000     1.980000000
C     1.507000000    -3.015000000     2.180000000
H     1.298000000    -2.129000000     1.563000000
C     0.602000000    -4.126000000     1.582000000
C    -0.763000000    -4.285000000     2.000000000
H    -1.086000000    -3.656000000     2.825000000
C     1.086000000    -4.965000000     0.556000000
H     2.129000000    -4.926000000     0.255000000
C     0.181000000    -5.857000000    -0.010000000
O     0.517000000    -6.806000000    -0.971000000
C    -1.112000000    -5.943000000     0.454000000
H    -1.805000000    -6.610000000    -0.052000000
C    -1.619000000    -5.205000000     1.431000000
O    -3.002000000    -5.340000000     1.833000000
C    -3.492000000    -4.817000000     3.064000000
C    -4.162000000    -3.606000000     3.068000000
H    -4.193000000    -2.955000000     2.198000000
C    -3.250000000    -5.466000000     4.268000000
H    -2.680000000    -6.389000000     4.198000000
C    -3.833000000    -5.046000000     5.494000000
H    -3.717000000    -5.628000000     6.405000000
C    -4.572000000    -3.841000000     5.481000000
H    -5.015000000    -3.487000000     6.408000000
C    -4.715000000    -3.115000000     4.280000000
O    -5.543000000    -2.034000000     4.206000000
C    -5.150000000    -0.764000000     3.797000000
C    -5.992000000     0.077000000     3.031000000
H    -6.939000000    -0.223000000     2.591000000
C    -5.502000000     1.216000000     2.386000000
O    -6.326000000     1.858000000     1.504000000
C    -6.056000000     3.038000000     0.904000000
C    -5.756000000     3.048000000    -0.449000000
H    -5.692000000     2.085000000    -0.948000000
C    -5.941000000     4.204000000     1.640000000
H    -6.138000000     4.188000000     2.709000000
C    -5.590000000     5.364000000     1.064000000
H    -5.664000000     6.279000000     1.647000000
C    -5.244000000     5.355000000    -0.320000000
H    -4.937000000     6.279000000    -0.802000000
C    -5.280000000     4.193000000    -1.065000000
O    -4.922000000     4.108000000    -2.334000000
C    -3.578000000     4.165000000    -2.745000000
C    -3.203000000     3.955000000    -4.067000000
H    -4.070000000     4.006000000    -4.719000000
C    -1.853000000     3.914000000    -4.529000000
O    -1.494000000     3.826000000    -5.829000000
C    -0.742000000     2.789000000    -6.375000000
C    -0.786000000     1.480000000    -5.788000000
H    -1.456000000     1.256000000    -4.963000000
C     0.138000000     3.043000000    -7.435000000
H     0.182000000     3.991000000    -7.966000000
C     1.020000000     2.050000000    -7.844000000
H     1.615000000     2.350000000    -8.703000000
C     0.986000000     0.741000000    -7.339000000
H     1.686000000    -0.019000000    -7.676000000
C     0.047000000     0.469000000    -6.338000000
O    -0.046000000    -0.776000000    -5.791000000
C     1.039000000    -1.394000000    -5.231000000
C     1.298000000    -2.749000000    -5.445000000
H     0.722000000    -3.278000000    -6.201000000
C     2.324000000    -3.335000000    -4.747000000
O     2.562000000    -4.681000000    -4.887000000
C     2.656000000    -5.391000000    -3.734000000
C     3.789000000    -6.226000000    -3.624000000
H     4.579000000    -6.103000000    -4.360000000
C     3.822000000    -7.199000000    -2.649000000
H     4.710000000    -7.796000000    -2.458000000
C     2.765000000    -7.429000000    -1.858000000
H     2.883000000    -8.256000000    -1.163000000
C     1.625000000    -6.586000000    -1.880000000
C     1.513000000    -5.655000000    -2.934000000
H     0.576000000    -5.161000000    -3.177000000
C    -2.425000000    -0.235000000    -0.902000000
H    -3.376000000     0.269000000    -1.056000000
C    -1.433000000     0.358000000    -0.158000000
H    -1.718000000     1.156000000     0.523000000
C    -0.194000000    -0.347000000    -0.101000000
C     0.887000000     0.442000000     0.683000000
H     1.883000000     0.141000000     0.351000000
H     0.773000000     1.517000000     0.529000000
H     0.756000000     0.173000000     1.734000000
C     0.103000000    -1.497000000    -0.747000000
H     1.101000000    -1.925000000    -0.781000000
C    -1.020000000    -2.133000000    -1.345000000
H    -0.892000000    -3.118000000    -1.786000000
C    -2.226000000    -1.431000000    -1.580000000
C    -3.353000000    -2.113000000    -2.356000000
O    -3.170000000    -3.252000000    -2.740000000
O    -4.419000000    -1.577000000    -2.526000000
O    -4.591000000     0.281000000    -6.993000000
H    -4.287000000    -0.587000000    -6.729000000
H    -5.247000000     0.514000000    -6.336000000
O    -3.534000000    -2.515000000    -6.939000000
H    -4.299000000    -3.059000000    -6.753000000
H    -2.895000000    -2.762000000    -6.270000000
O    -5.964000000    -3.885000000    -6.592000000
H    -6.126000000    -4.485000000    -7.320000000
H    -6.409000000    -4.288000000    -5.846000000
O    -1.315000000    -2.153000000    -8.952000000
H    -1.848000000    -2.324000000    -8.175000000
H    -1.404000000    -1.211000000    -9.100000000
O    -1.650000000    -6.452000000    -4.643000000
H    -0.887000000    -6.920000000    -4.983000000
H    -1.505000000    -5.541000000    -4.899000000
O    -6.083000000    -3.760000000    -3.476000000
H    -5.145000000    -3.591000000    -3.560000000
H    -6.450000000    -2.930000000    -3.171000000
O    -7.704000000    -5.745000000    -5.027000000
H    -7.615000000    -5.194000000    -4.250000000
H    -8.512000000    -6.236000000    -4.881000000
O    -5.554000000    -3.710000000    -0.593000000
H    -5.343000000    -4.401000000    -1.220000000
H    -5.187000000    -2.915000000    -0.980000000
O    -5.187000000    -7.645000000    -1.756000000
H    -4.776000000    -8.398000000    -2.180000000
H    -4.688000000    -6.891000000    -2.070000000
O    -1.967000000    -3.510000000    -5.007000000
H    -2.476000000    -3.362000000    -4.210000000
H    -1.173000000    -2.991000000    -4.884000000
O    -5.829000000    -0.032000000    -4.431000000
H    -6.005000000     0.691000000    -3.828000000
H    -5.156000000    -0.552000000    -3.992000000
O    -7.918000000    -1.997000000    -7.383000000
H    -8.089000000    -2.098000000    -8.319000000
H    -7.165000000    -2.564000000    -7.214000000
O    -9.366000000    -2.967000000    -2.857000000
H    -9.596000000    -2.614000000    -1.998000000
H    -8.737000000    -2.340000000    -3.213000000
O    -7.113000000    -2.646000000     1.617000000
H    -6.758000000    -3.312000000     2.205000000
H    -6.964000000    -2.997000000     0.739000000
O    -8.401000000    -0.922000000    -4.639000000
H    -7.495000000    -0.628000000    -4.542000000
H    -8.473000000    -1.178000000    -5.559000000
O    -3.576000000    -5.826000000    -2.842000000
H    -3.394000000    -4.900000000    -2.681000000
H    -3.108000000    -6.024000000    -3.653000000
O    -9.061000000     0.871000000    -0.948000000
H    -9.164000000     0.566000000    -0.046000000
H    -8.168000000     0.622000000    -1.185000000
O    -6.631000000    -0.553000000    -1.478000000
H    -6.740000000    -0.657000000    -0.533000000
H    -5.819000000    -1.018000000    -1.678000000
O    -5.567000000    -6.126000000     0.972000000
H    -5.587000000    -5.370000000     0.386000000
H    -4.872000000    -5.925000000     1.600000000
