218
-1449.36507
C    -4.524000000     1.035000000     1.929000000
H    -4.481000000     2.063000000     1.578000000
C    -3.488000000     0.529000000     2.761000000
C    -3.517000000    -0.818000000     2.987000000
H    -2.645000000    -1.321000000     3.399000000
C    -2.275000000     1.429000000     3.050000000
O    -2.665000000     2.845000000     3.139000000
H    -1.506000000     1.364000000     2.265000000
O    -1.670000000     1.058000000     4.341000000
C    -0.334000000     1.002000000     4.518000000
C     0.220000000    -0.317000000     4.423000000
H    -0.527000000    -1.099000000     4.311000000
C     1.555000000    -0.524000000     4.230000000
O     2.029000000    -1.823000000     4.124000000
C     2.432000000     0.592000000     4.127000000
C     3.929000000     0.381000000     3.944000000
H     4.429000000     1.322000000     4.184000000
C     4.305000000     0.083000000     2.487000000
C     4.629000000     1.093000000     1.637000000
H     4.624000000     2.050000000     2.153000000
H     4.260000000    -0.346000000     4.688000000
C     1.912000000     1.872000000     4.330000000
H     2.565000000     2.741000000     4.293000000
C     0.498000000     2.078000000     4.480000000
C    -0.038000000     3.475000000     4.403000000
H     0.706000000     4.184000000     4.771000000
H    -0.903000000     3.680000000     5.038000000
C    -0.441000000     3.861000000     2.980000000
C     0.594000000     4.417000000     2.158000000
H     1.634000000     4.462000000     2.472000000
C    -1.758000000     3.747000000     2.553000000
C    -1.994000000     4.088000000     1.210000000
H    -2.922000000     3.806000000     0.717000000
C    -0.966000000     4.543000000     0.358000000
O    -1.347000000     4.697000000    -0.950000000
C    -0.883000000     3.807000000    -1.888000000
C    -2.014000000     3.405000000    -2.851000000
C    -1.865000000     2.714000000    -4.053000000
H    -0.880000000     2.431000000    -4.416000000
C    -3.373000000     3.768000000    -2.527000000
H    -3.526000000     4.432000000    -1.680000000
O     0.244000000     4.394000000    -2.553000000
H    -0.639000000     2.947000000    -1.248000000
C     0.338000000     4.837000000     0.850000000
C     1.334000000     5.441000000    -0.136000000
H     2.146000000     5.884000000     0.445000000
H     0.807000000     6.177000000    -0.747000000
C     2.030000000     4.327000000    -0.886000000
C     3.246000000     3.782000000    -0.484000000
H     3.718000000     4.160000000     0.419000000
C     1.464000000     3.936000000    -2.107000000
C     2.067000000     2.900000000    -2.792000000
H     1.453000000     2.459000000    -3.573000000
C     3.176000000     2.256000000    -2.345000000
O     3.652000000     1.145000000    -2.949000000
C     3.456000000    -0.166000000    -2.339000000
C     3.134000000    -1.225000000    -3.371000000
C     2.420000000    -0.863000000    -4.560000000
H     2.095000000     0.174000000    -4.589000000
C     3.147000000    -2.566000000    -3.066000000
H     3.631000000    -2.949000000    -2.171000000
O     4.652000000    -0.467000000    -1.605000000
H     2.632000000    -0.036000000    -1.621000000
C     3.790000000     2.738000000    -1.136000000
C     5.112000000     2.162000000    -0.646000000
H     5.693000000     2.981000000    -0.218000000
H     5.750000000     1.786000000    -1.448000000
C     4.884000000     0.976000000     0.354000000
C     4.663000000    -0.292000000    -0.269000000
C     4.367000000    -1.325000000     0.570000000
H     4.248000000    -2.307000000     0.120000000
C     4.136000000    -1.176000000     1.919000000
O     3.764000000    -2.204000000     2.641000000
C     2.364000000    -2.325000000     2.854000000
H     1.786000000    -1.794000000     2.084000000
C     1.811000000    -3.739000000     2.799000000
C     0.690000000    -4.177000000     3.536000000
H     0.341000000    -3.746000000     4.470000000
C     2.371000000    -4.625000000     1.735000000
H     3.285000000    -4.314000000     1.236000000
C     1.867000000    -5.899000000     1.606000000
O     2.495000000    -6.841000000     0.841000000
C     0.774000000    -6.296000000     2.353000000
H     0.374000000    -7.305000000     2.299000000
C     0.099000000    -5.455000000     3.206000000
O    -0.913000000    -5.935000000     3.953000000
C    -1.884000000    -5.024000000     4.364000000
C    -2.696000000    -4.347000000     3.413000000
H    -2.605000000    -4.547000000     2.348000000
C    -2.117000000    -4.801000000     5.741000000
H    -1.504000000    -5.300000000     6.488000000
C    -3.087000000    -3.948000000     6.216000000
H    -3.212000000    -3.732000000     7.274000000
C    -3.965000000    -3.425000000     5.315000000
H    -4.759000000    -2.779000000     5.681000000
C    -3.790000000    -3.548000000     3.914000000
O    -4.625000000    -2.976000000     2.981000000
C    -4.577000000    -1.620000000     2.632000000
C    -5.648000000    -1.076000000     1.905000000
H    -6.479000000    -1.760000000     1.752000000
C    -5.593000000     0.266000000     1.475000000
O    -6.530000000     0.771000000     0.606000000
C    -6.601000000     2.063000000     0.152000000
C    -6.117000000     2.295000000    -1.148000000
H    -5.970000000     1.430000000    -1.790000000
C    -7.092000000     3.198000000     0.906000000
H    -7.461000000     3.045000000     1.917000000
C    -7.153000000     4.499000000     0.309000000
H    -7.561000000     5.317000000     0.898000000
C    -6.843000000     4.653000000    -1.050000000
H    -7.005000000     5.624000000    -1.511000000
C    -6.289000000     3.573000000    -1.714000000
O    -5.748000000     3.777000000    -3.006000000
C    -4.475000000     3.356000000    -3.289000000
C    -4.239000000     2.480000000    -4.401000000
H    -5.081000000     2.014000000    -4.905000000
C    -2.920000000     2.211000000    -4.775000000
O    -2.684000000     1.239000000    -5.735000000
C    -1.493000000     0.970000000    -6.403000000
C    -0.719000000    -0.232000000    -6.180000000
H    -1.030000000    -1.027000000    -5.507000000
C    -0.953000000     1.941000000    -7.228000000
H    -1.546000000     2.832000000    -7.418000000
C     0.303000000     1.745000000    -7.914000000
H     0.745000000     2.567000000    -8.471000000
C     1.045000000     0.577000000    -7.612000000
H     1.934000000     0.440000000    -8.223000000
C     0.517000000    -0.416000000    -6.827000000
O     1.233000000    -1.524000000    -6.574000000
C     2.013000000    -1.846000000    -5.477000000
C     2.083000000    -3.200000000    -5.183000000
H     1.782000000    -3.974000000    -5.885000000
C     2.632000000    -3.586000000    -3.928000000
O     2.725000000    -4.960000000    -3.630000000
C     3.323000000    -5.420000000    -2.462000000
C     4.630000000    -5.944000000    -2.650000000
H     5.100000000    -5.794000000    -3.619000000
C     5.213000000    -6.763000000    -1.735000000
H     6.152000000    -7.232000000    -2.017000000
C     4.529000000    -7.042000000    -0.541000000
H     4.961000000    -7.588000000     0.293000000
C     3.182000000    -6.602000000    -0.370000000
C     2.623000000    -5.737000000    -1.297000000
H     1.590000000    -5.410000000    -1.208000000
C    -2.188000000    -0.424000000    -0.701000000
H    -3.262000000    -0.280000000    -0.617000000
C    -1.256000000     0.420000000    -0.141000000
H    -1.710000000     1.293000000     0.323000000
C     0.082000000     0.209000000    -0.116000000
C     1.024000000     1.170000000     0.617000000
H     1.981000000     1.263000000     0.100000000
H     0.690000000     2.207000000     0.687000000
H     1.271000000     0.836000000     1.627000000
C     0.552000000    -0.957000000    -0.782000000
H     1.583000000    -1.295000000    -0.727000000
C    -0.335000000    -1.711000000    -1.475000000
H     0.065000000    -2.564000000    -2.017000000
C    -1.702000000    -1.469000000    -1.461000000
C    -2.644000000    -2.216000000    -2.376000000
O    -2.232000000    -3.296000000    -2.803000000
O    -3.756000000    -1.739000000    -2.554000000
O    -2.979000000    -6.070000000    -5.393000000
H    -3.428000000    -5.231000000    -5.493000000
H    -3.609000000    -6.626000000    -4.935000000
O    -1.344000000    -3.441000000    -7.663000000
H    -1.809000000    -3.325000000    -6.834000000
H    -0.475000000    -3.752000000    -7.409000000
O    -4.539000000    -6.573000000     0.471000000
H    -5.211000000    -5.981000000     0.812000000
H    -4.417000000    -6.298000000    -0.438000000
O    -3.718000000    -2.252000000    -9.045000000
H    -2.886000000    -2.006000000    -8.640000000
H    -4.302000000    -1.516000000    -8.858000000
O    -8.415000000    -0.089000000    -3.417000000
H    -9.051000000    -0.429000000    -4.047000000
H    -8.095000000     0.721000000    -3.814000000
O    -0.819000000    -5.387000000    -3.323000000
H    -1.493000000    -5.610000000    -3.965000000
H    -1.081000000    -4.528000000    -2.991000000
O    -7.512000000    -0.386000000    -7.184000000
H    -6.813000000    -0.022000000    -7.727000000
H    -7.055000000    -0.860000000    -6.490000000
O    -6.719000000    -4.996000000     0.148000000
H    -7.608000000    -4.718000000     0.366000000
H    -6.402000000    -4.328000000    -0.460000000
O    -4.374000000    -5.046000000    -1.821000000
H    -4.839000000    -4.354000000    -1.351000000
H    -3.634000000    -4.599000000    -2.233000000
O    -0.290000000    -7.082000000    -1.099000000
H     0.147000000    -6.687000000    -0.345000000
H    -0.290000000    -6.392000000    -1.763000000
O    -2.267000000    -8.960000000    -0.758000000
H    -2.720000000    -8.561000000    -0.015000000
H    -1.634000000    -8.298000000    -1.036000000
O    -4.756000000    -1.015000000    -4.780000000
H    -4.422000000    -1.363000000    -3.953000000
H    -4.496000000    -0.093000000    -4.774000000
O    -5.027000000    -6.952000000    -3.808000000
H    -5.690000000    -7.628000000    -3.674000000
H    -4.718000000    -6.741000000    -2.927000000
O    -4.954000000    -2.788000000    -0.459000000
H    -4.565000000    -2.263000000    -1.159000000
H    -5.110000000    -2.163000000     0.249000000
O    -5.881000000    -5.076000000    -5.882000000
H    -5.790000000    -5.318000000    -4.961000000
H    -6.007000000    -5.909000000    -6.337000000
O    -2.488000000    -7.230000000     1.978000000
H    -3.230000000    -7.076000000     1.394000000
H    -2.710000000    -6.753000000     2.778000000
O    -0.789000000    -7.019000000    -6.380000000
H    -0.165000000    -6.480000000    -6.866000000
H    -1.506000000    -6.422000000    -6.165000000
O    -2.595000000    -3.027000000    -5.438000000
H    -2.289000000    -3.277000000    -4.566000000
H    -3.390000000    -2.519000000    -5.276000000
O    -6.515000000    -2.531000000    -5.929000000
H    -5.844000000    -2.032000000    -5.463000000
H    -6.274000000    -3.447000000    -5.786000000
