218
-1456.04090
C    -4.056000000     0.529000000     2.951000000
H    -4.046000000     1.469000000     2.406000000
C    -2.933000000     0.116000000     3.667000000
C    -3.093000000    -1.189000000     4.289000000
H    -2.396000000    -1.429000000     5.087000000
C    -1.686000000     0.944000000     3.734000000
O    -2.004000000     2.334000000     3.792000000
H    -1.199000000     0.771000000     2.763000000
O    -0.895000000     0.539000000     4.911000000
C     0.447000000     0.419000000     4.682000000
C     0.956000000    -0.874000000     4.441000000
H     0.241000000    -1.688000000     4.358000000
C     2.314000000    -1.043000000     4.045000000
O     2.556000000    -2.303000000     3.545000000
C     3.167000000     0.043000000     3.753000000
C     4.538000000    -0.092000000     3.169000000
H     5.099000000     0.815000000     3.403000000
C     4.513000000    -0.162000000     1.658000000
C     4.631000000     1.045000000     0.954000000
H     4.800000000     1.990000000     1.464000000
H     5.076000000    -0.956000000     3.564000000
C     2.634000000     1.317000000     4.053000000
H     3.291000000     2.178000000     3.961000000
C     1.277000000     1.521000000     4.484000000
C     0.722000000     2.917000000     4.650000000
H     1.591000000     3.537000000     4.881000000
H     0.117000000     2.880000000     5.558000000
C     0.090000000     3.459000000     3.347000000
C     0.867000000     4.255000000     2.518000000
H     1.868000000     4.455000000     2.892000000
C    -1.212000000     3.126000000     2.937000000
C    -1.701000000     3.569000000     1.767000000
H    -2.725000000     3.330000000     1.492000000
C    -0.867000000     4.319000000     0.923000000
O    -1.387000000     4.733000000    -0.317000000
C    -1.150000000     4.052000000    -1.470000000
C    -2.445000000     3.853000000    -2.336000000
C    -2.372000000     3.562000000    -3.698000000
H    -1.458000000     3.755000000    -4.253000000
C    -3.666000000     3.779000000    -1.733000000
H    -3.804000000     3.879000000    -0.659000000
O    -0.098000000     4.706000000    -2.204000000
H    -0.778000000     3.059000000    -1.177000000
C     0.439000000     4.654000000     1.270000000
C     1.384000000     5.380000000     0.270000000
H     2.175000000     5.674000000     0.963000000
H     0.904000000     6.259000000    -0.166000000
C     1.893000000     4.493000000    -0.752000000
C     3.074000000     3.826000000    -0.560000000
H     3.673000000     4.176000000     0.277000000
C     1.158000000     4.198000000    -1.932000000
C     1.636000000     3.252000000    -2.829000000
H     1.184000000     3.007000000    -3.787000000
C     2.888000000     2.636000000    -2.619000000
O     3.316000000     1.733000000    -3.509000000
C     3.124000000     0.350000000    -3.091000000
C     2.459000000    -0.641000000    -4.077000000
C     1.513000000    -0.126000000    -4.949000000
H     1.316000000     0.939000000    -5.040000000
C     2.534000000    -2.029000000    -3.875000000
H     2.955000000    -2.413000000    -2.949000000
O     4.333000000    -0.249000000    -2.518000000
H     2.357000000     0.365000000    -2.302000000
C     3.592000000     2.946000000    -1.508000000
C     4.963000000     2.319000000    -1.235000000
H     5.524000000     2.978000000    -0.570000000
H     5.599000000     2.056000000    -2.083000000
C     4.706000000     1.056000000    -0.456000000
C     4.481000000    -0.179000000    -1.104000000
C     4.298000000    -1.396000000    -0.390000000
H     4.090000000    -2.316000000    -0.930000000
C     4.263000000    -1.341000000     1.011000000
O     3.958000000    -2.494000000     1.633000000
C     2.607000000    -2.625000000     2.135000000
H     2.030000000    -1.859000000     1.596000000
C     1.988000000    -3.989000000     1.822000000
C     0.944000000    -4.530000000     2.613000000
H     0.584000000    -3.877000000     3.404000000
C     2.396000000    -4.743000000     0.708000000
H     3.098000000    -4.385000000    -0.041000000
C     1.747000000    -5.990000000     0.495000000
O     2.204000000    -6.777000000    -0.496000000
C     0.770000000    -6.533000000     1.365000000
H     0.323000000    -7.484000000     1.088000000
C     0.323000000    -5.776000000     2.433000000
O    -0.839000000    -6.154000000     3.122000000
C    -1.326000000    -5.402000000     4.161000000
C    -2.366000000    -4.542000000     3.845000000
H    -2.675000000    -4.309000000     2.829000000
C    -0.942000000    -5.651000000     5.496000000
H    -0.054000000    -6.224000000     5.749000000
C    -1.688000000    -5.017000000     6.469000000
H    -1.525000000    -5.200000000     7.528000000
C    -2.744000000    -4.181000000     6.203000000
H    -3.382000000    -3.795000000     6.993000000
C    -3.041000000    -3.913000000     4.906000000
O    -4.179000000    -3.202000000     4.649000000
C    -4.160000000    -2.041000000     4.048000000
C    -5.165000000    -1.556000000     3.226000000
H    -5.960000000    -2.210000000     2.876000000
C    -5.046000000    -0.321000000     2.645000000
O    -5.957000000    -0.034000000     1.677000000
C    -6.290000000     1.255000000     1.246000000
C    -6.010000000     1.687000000    -0.047000000
H    -5.664000000     0.979000000    -0.795000000
C    -6.659000000     2.181000000     2.212000000
H    -6.716000000     1.929000000     3.268000000
C    -6.949000000     3.464000000     1.854000000
H    -7.308000000     4.157000000     2.610000000
C    -6.696000000     3.925000000     0.533000000
H    -6.837000000     4.980000000     0.310000000
C    -6.215000000     2.983000000    -0.459000000
O    -6.043000000     3.327000000    -1.745000000
C    -4.825000000     3.435000000    -2.447000000
C    -4.738000000     3.117000000    -3.815000000
H    -5.606000000     2.746000000    -4.355000000
C    -3.514000000     3.155000000    -4.423000000
O    -3.342000000     3.000000000    -5.833000000
C    -2.201000000     2.489000000    -6.354000000
C    -1.852000000     1.199000000    -6.138000000
H    -2.442000000     0.589000000    -5.459000000
C    -1.349000000     3.316000000    -7.138000000
H    -1.639000000     4.348000000    -7.315000000
C    -0.162000000     2.844000000    -7.665000000
H     0.574000000     3.379000000    -8.260000000
C     0.137000000     1.434000000    -7.480000000
H     1.004000000     0.951000000    -7.921000000
C    -0.707000000     0.614000000    -6.712000000
O    -0.361000000    -0.645000000    -6.427000000
C     0.672000000    -1.038000000    -5.632000000
C     0.824000000    -2.382000000    -5.559000000
H     0.223000000    -3.050000000    -6.171000000
C     1.737000000    -2.886000000    -4.662000000
O     1.624000000    -4.199000000    -4.442000000
C     2.490000000    -4.938000000    -3.652000000
C     3.812000000    -5.210000000    -4.004000000
H     4.206000000    -4.788000000    -4.925000000
C     4.582000000    -5.967000000    -3.164000000
H     5.595000000    -6.225000000    -3.461000000
C     3.973000000    -6.648000000    -2.041000000
H     4.616000000    -7.203000000    -1.363000000
C     2.687000000    -6.283000000    -1.670000000
C     1.923000000    -5.369000000    -2.407000000
H     0.925000000    -5.020000000    -2.153000000
C    -2.696000000    -1.072000000    -0.638000000
H    -3.768000000    -0.935000000    -0.517000000
C    -1.895000000    -0.108000000    -0.052000000
H    -2.379000000     0.641000000     0.569000000
C    -0.541000000    -0.142000000    -0.336000000
C     0.383000000     0.934000000     0.217000000
H     0.681000000     1.619000000    -0.580000000
H    -0.159000000     1.594000000     0.898000000
H     1.196000000     0.479000000     0.787000000
C     0.057000000    -1.160000000    -1.057000000
H     1.133000000    -1.150000000    -1.216000000
C    -0.727000000    -2.217000000    -1.515000000
H    -0.267000000    -2.944000000    -2.178000000
C    -2.116000000    -2.160000000    -1.380000000
C    -2.925000000    -3.204000000    -1.988000000
O    -2.498000000    -4.067000000    -2.649000000
O    -4.095000000    -3.162000000    -1.812000000
O    -4.348000000    -5.756000000    -0.055000000
H    -4.197000000    -5.065000000    -0.700000000
H    -3.542000000    -6.272000000    -0.064000000
O    -5.724000000    -1.396000000    -5.260000000
H    -5.872000000    -2.195000000    -4.754000000
H    -5.187000000    -1.678000000    -6.000000000
O    -0.876000000    -5.325000000    -4.478000000
H    -0.052000000    -4.865000000    -4.637000000
H    -1.198000000    -4.960000000    -3.654000000
O    -7.954000000    -2.628000000    -3.277000000
H    -8.598000000    -3.043000000    -3.849000000
H    -7.170000000    -3.169000000    -3.366000000
O    -3.784000000    -5.377000000    -5.323000000
H    -3.787000000    -6.253000000    -4.936000000
H    -2.897000000    -5.051000000    -5.170000000
O    -6.478000000    -0.227000000    -2.858000000
H    -6.349000000    -1.089000000    -2.460000000
H    -6.236000000    -0.349000000    -3.776000000
O    -7.042000000    -4.366000000     2.011000000
H    -7.833000000    -4.749000000     1.634000000
H    -6.694000000    -3.803000000     1.319000000
O    -4.451000000    -9.044000000     0.254000000
H    -5.054000000    -9.727000000    -0.041000000
H    -4.383000000    -8.447000000    -0.491000000
O    -1.923000000    -6.453000000    -0.686000000
H    -1.767000000    -5.569000000    -1.019000000
H    -1.408000000    -7.019000000    -1.260000000
O    -8.510000000    -1.761000000    -0.731000000
H    -7.720000000    -2.286000000    -0.602000000
H    -8.740000000    -1.896000000    -1.650000000
O    -5.666000000    -3.926000000    -3.871000000
H    -5.067000000    -4.513000000    -4.332000000
H    -5.140000000    -3.555000000    -3.162000000
O    -5.848000000    -2.605000000     0.165000000
H    -5.229000000    -2.800000000    -0.538000000
H    -5.504000000    -1.811000000     0.574000000
O    -4.840000000    -5.594000000    -7.777000000
H    -4.768000000    -5.483000000    -6.829000000
H    -5.617000000    -6.141000000    -7.895000000
O    -6.194000000    -7.255000000    -1.506000000
H    -6.860000000    -6.728000000    -1.948000000
H    -5.626000000    -6.614000000    -1.079000000
O    -8.207000000    -5.719000000    -2.679000000
H    -8.019000000    -5.397000000    -3.561000000
H    -8.223000000    -4.932000000    -2.135000000
O    -4.899000000    -6.055000000     2.457000000
H    -4.426000000    -5.917000000     1.636000000
H    -5.595000000    -5.398000000     2.446000000
O    -2.301000000    -8.108000000     1.936000000
H    -2.999000000    -8.416000000     1.357000000
H    -1.989000000    -7.301000000     1.526000000
O    -1.019000000    -7.744000000    -5.419000000
H    -1.075000000    -6.898000000    -4.974000000
H    -0.573000000    -7.552000000    -6.244000000
O    -4.234000000    -2.427000000    -7.113000000
H    -4.119000000    -2.019000000    -7.971000000
H    -3.727000000    -3.237000000    -7.163000000
