218
-1465.95497
C    -4.614000000     0.971000000     2.817000000
H    -4.628000000     2.051000000     2.694000000
C    -3.458000000     0.371000000     3.289000000
C    -3.420000000    -0.997000000     3.225000000
H    -2.498000000    -1.484000000     3.532000000
C    -2.131000000     1.104000000     3.474000000
O    -2.255000000     2.523000000     3.807000000
H    -1.571000000     1.056000000     2.529000000
O    -1.363000000     0.444000000     4.568000000
C     0.053000000     0.230000000     4.438000000
C     0.450000000    -1.103000000     4.207000000
H    -0.273000000    -1.914000000     4.196000000
C     1.808000000    -1.459000000     4.139000000
O     2.033000000    -2.689000000     3.720000000
C     2.766000000    -0.409000000     3.985000000
C     4.316000000    -0.600000000     3.703000000
H     4.820000000     0.276000000     4.118000000
C     4.470000000    -0.577000000     2.213000000
C     4.680000000     0.640000000     1.564000000
H     4.682000000     1.529000000     2.190000000
H     4.659000000    -1.527000000     4.167000000
C     2.312000000     0.890000000     4.221000000
H     2.985000000     1.740000000     4.136000000
C     0.977000000     1.232000000     4.514000000
C     0.547000000     2.654000000     4.782000000
H     1.354000000     3.277000000     5.173000000
H    -0.256000000     2.660000000     5.522000000
C     0.026000000     3.381000000     3.527000000
C     0.914000000     4.058000000     2.686000000
H     1.971000000     4.064000000     2.937000000
C    -1.331000000     3.341000000     3.184000000
C    -1.865000000     4.021000000     2.154000000
H    -2.899000000     3.849000000     1.868000000
C    -0.947000000     4.697000000     1.284000000
O    -1.391000000     4.973000000     0.048000000
C    -0.984000000     3.954000000    -0.950000000
C    -2.123000000     3.420000000    -1.841000000
C    -1.869000000     2.636000000    -2.979000000
H    -0.860000000     2.307000000    -3.212000000
C    -3.475000000     3.698000000    -1.450000000
H    -3.714000000     4.183000000    -0.508000000
O     0.084000000     4.523000000    -1.803000000
H    -0.451000000     3.145000000    -0.430000000
C     0.383000000     4.798000000     1.605000000
C     1.390000000     5.429000000     0.674000000
H     2.238000000     5.790000000     1.260000000
H     0.893000000     6.237000000     0.134000000
C     2.003000000     4.383000000    -0.221000000
C     3.133000000     3.716000000     0.114000000
H     3.436000000     3.879000000     1.145000000
C     1.472000000     4.151000000    -1.536000000
C     1.978000000     3.107000000    -2.319000000
H     1.389000000     2.838000000    -3.193000000
C     3.260000000     2.564000000    -2.075000000
O     3.798000000     1.594000000    -2.939000000
C     3.474000000     0.274000000    -2.540000000
C     3.244000000    -0.534000000    -3.803000000
C     2.468000000     0.080000000    -4.847000000
H     2.226000000     1.137000000    -4.777000000
C     3.356000000    -1.920000000    -3.856000000
H     3.833000000    -2.451000000    -3.037000000
O     4.472000000    -0.469000000    -1.880000000
H     2.570000000     0.239000000    -1.914000000
C     3.741000000     2.862000000    -0.830000000
C     4.987000000     2.175000000    -0.375000000
H     5.454000000     2.773000000     0.411000000
H     5.741000000     2.197000000    -1.166000000
C     4.722000000     0.791000000     0.216000000
C     4.450000000    -0.406000000    -0.518000000
C     4.194000000    -1.638000000     0.071000000
H     3.972000000    -2.492000000    -0.565000000
C     4.186000000    -1.712000000     1.451000000
O     3.688000000    -2.897000000     2.023000000
C     2.295000000    -2.860000000     2.345000000
H     1.789000000    -2.002000000     1.878000000
C     1.674000000    -4.127000000     1.848000000
C     0.603000000    -4.699000000     2.569000000
H     0.263000000    -4.317000000     3.529000000
C     2.116000000    -4.677000000     0.629000000
H     3.115000000    -4.499000000     0.239000000
C     1.343000000    -5.715000000     0.036000000
O     1.492000000    -6.159000000    -1.272000000
C     0.371000000    -6.322000000     0.791000000
H    -0.109000000    -7.168000000     0.306000000
C     0.009000000    -5.865000000     2.056000000
O    -0.971000000    -6.491000000     2.757000000
C    -1.893000000    -5.703000000     3.454000000
C    -2.756000000    -4.891000000     2.791000000
H    -2.861000000    -4.927000000     1.710000000
C    -1.842000000    -5.647000000     4.859000000
H    -1.085000000    -6.274000000     5.322000000
C    -2.720000000    -4.829000000     5.536000000
H    -2.538000000    -4.612000000     6.585000000
C    -3.595000000    -4.019000000     4.808000000
H    -4.328000000    -3.323000000     5.209000000
C    -3.577000000    -3.979000000     3.415000000
O    -4.500000000    -3.155000000     2.792000000
C    -4.494000000    -1.791000000     2.842000000
C    -5.566000000    -1.151000000     2.321000000
H    -6.324000000    -1.751000000     1.824000000
C    -5.694000000     0.217000000     2.329000000
O    -6.786000000     0.790000000     1.677000000
C    -6.901000000     2.001000000     0.986000000
C    -6.249000000     2.296000000    -0.237000000
H    -5.737000000     1.465000000    -0.714000000
C    -7.559000000     3.034000000     1.618000000
H    -8.065000000     2.831000000     2.559000000
C    -7.694000000     4.277000000     1.060000000
H    -8.238000000     5.076000000     1.556000000
C    -7.053000000     4.568000000    -0.172000000
H    -7.191000000     5.517000000    -0.683000000
C    -6.294000000     3.601000000    -0.809000000
O    -5.725000000     3.817000000    -2.067000000
C    -4.482000000     3.415000000    -2.406000000
C    -4.214000000     2.698000000    -3.520000000
H    -5.053000000     2.456000000    -4.169000000
C    -2.920000000     2.280000000    -3.804000000
O    -2.682000000     1.509000000    -4.960000000
C    -1.574000000     1.715000000    -5.791000000
C    -0.688000000     0.642000000    -5.923000000
H    -0.884000000    -0.244000000    -5.325000000
C    -1.286000000     2.970000000    -6.403000000
H    -1.999000000     3.783000000    -6.289000000
C    -0.212000000     3.054000000    -7.290000000
H    -0.167000000     3.931000000    -7.931000000
C     0.653000000     1.995000000    -7.507000000
H     1.518000000     2.129000000    -8.151000000
C     0.384000000     0.767000000    -6.881000000
O     1.413000000    -0.180000000    -7.052000000
C     2.068000000    -0.689000000    -5.917000000
C     2.361000000    -2.059000000    -5.990000000
H     1.955000000    -2.582000000    -6.853000000
C     3.066000000    -2.684000000    -5.018000000
O     3.403000000    -4.021000000    -5.133000000
C     3.581000000    -4.904000000    -4.070000000
C     4.808000000    -5.397000000    -3.686000000
H     5.694000000    -5.152000000    -4.266000000
C     4.908000000    -6.102000000    -2.493000000
H     5.839000000    -6.453000000    -2.056000000
C     3.800000000    -6.333000000    -1.736000000
H     3.780000000    -6.918000000    -0.820000000
C     2.571000000    -5.923000000    -2.163000000
C     2.434000000    -5.110000000    -3.293000000
H     1.474000000    -4.698000000    -3.592000000
C    -2.992000000    -1.303000000    -0.771000000
H    -3.935000000    -0.824000000    -1.020000000
C    -1.844000000    -0.480000000    -0.682000000
H    -1.959000000     0.586000000    -0.858000000
C    -0.615000000    -1.005000000    -0.285000000
C     0.564000000    -0.135000000    -0.046000000
H     0.490000000     0.384000000     0.912000000
H     1.462000000    -0.755000000    -0.055000000
H     0.639000000     0.646000000    -0.806000000
C    -0.514000000    -2.401000000    -0.117000000
H     0.495000000    -2.775000000     0.039000000
C    -1.633000000    -3.262000000    -0.262000000
H    -1.609000000    -4.341000000    -0.136000000
C    -2.897000000    -2.683000000    -0.595000000
C    -4.156000000    -3.464000000    -0.807000000
O    -4.242000000    -4.572000000    -0.328000000
O    -5.144000000    -3.040000000    -1.462000000
O    -8.815000000    -5.213000000    -0.380000000
H    -8.036000000    -5.344000000     0.160000000
H    -8.503000000    -4.711000000    -1.133000000
O    -5.720000000    -6.298000000    -1.967000000
H    -6.358000000    -5.637000000    -2.236000000
H    -5.141000000    -5.838000000    -1.360000000
O    -4.822000000    -8.091000000     3.643000000
H    -5.184000000    -8.277000000     2.777000000
H    -5.337000000    -7.351000000     3.965000000
O    -8.787000000    -3.866000000     2.308000000
H    -8.162000000    -4.482000000     1.925000000
H    -8.244000000    -3.238000000     2.784000000
O    -7.404000000    -3.985000000    -2.712000000
H    -6.788000000    -3.699000000    -2.038000000
H    -7.694000000    -3.174000000    -3.131000000
O    -6.501000000    -5.301000000     1.330000000
H    -5.715000000    -5.155000000     0.803000000
H    -6.171000000    -5.460000000     2.214000000
O    -1.327000000    -4.728000000    -5.610000000
H    -0.990000000    -4.145000000    -4.929000000
H    -0.581000000    -4.873000000    -6.192000000
O    -3.843000000    -2.764000000    -3.818000000
H    -4.494000000    -2.312000000    -4.356000000
H    -4.280000000    -2.899000000    -2.977000000
O    -3.655000000    -9.252000000     0.603000000
H    -4.533000000    -9.239000000     0.984000000
H    -3.486000000    -8.342000000     0.358000000
O    -5.654000000    -8.990000000    -2.065000000
H    -5.702000000    -8.035000000    -2.111000000
H    -4.809000000    -9.167000000    -1.650000000
O    -2.761000000    -5.951000000    -3.187000000
H    -2.345000000    -5.351000000    -3.807000000
H    -3.659000000    -5.629000000    -3.108000000
O    -3.005000000    -6.952000000    -0.660000000
H    -3.526000000    -6.198000000    -0.384000000
H    -2.867000000    -6.818000000    -1.597000000
O    -6.272000000    -8.415000000     1.244000000
H    -6.714000000    -7.917000000     0.555000000
H    -6.801000000    -9.206000000     1.345000000
O    -0.688000000    -8.301000000    -1.952000000
H    -1.591000000    -8.274000000    -1.635000000
H    -0.462000000    -7.384000000    -2.108000000
O    -1.022000000    -3.162000000    -3.376000000
H    -0.750000000    -2.453000000    -2.793000000
H    -1.890000000    -2.899000000    -3.683000000
O    -6.312000000    -1.097000000    -4.208000000
H    -6.493000000    -0.183000000    -4.427000000
H    -6.255000000    -1.107000000    -3.253000000
O    -6.716000000    -0.938000000    -1.380000000
H    -6.173000000    -1.711000000    -1.537000000
H    -6.779000000    -0.879000000    -0.427000000
O    -6.616000000    -6.114000000     4.132000000
H    -6.624000000    -5.299000000     4.634000000
H    -7.469000000    -6.511000000     4.307000000
O    -8.170000000    -5.836000000    -4.442000000
H    -8.092000000    -5.573000000    -5.359000000
H    -7.635000000    -5.201000000    -3.965000000
