218
-1462.28787
C    -4.451000000     2.147000000     2.179000000
H    -4.203000000     3.175000000     1.927000000
C    -3.582000000     1.399000000     2.972000000
C    -3.927000000     0.029000000     3.310000000
H    -3.164000000    -0.623000000     3.727000000
C    -2.245000000     2.011000000     3.232000000
O    -2.105000000     3.467000000     3.001000000
H    -1.507000000     1.606000000     2.524000000
O    -1.704000000     1.691000000     4.524000000
C    -0.466000000     1.179000000     4.541000000
C    -0.354000000    -0.171000000     4.503000000
H    -1.172000000    -0.886000000     4.466000000
C     0.933000000    -0.755000000     4.480000000
O     0.984000000    -2.088000000     4.218000000
C     2.107000000    -0.009000000     4.520000000
C     3.407000000    -0.719000000     4.495000000
H     4.192000000    -0.136000000     4.981000000
C     3.878000000    -0.891000000     2.985000000
C     4.368000000     0.157000000     2.275000000
H     4.568000000     1.122000000     2.732000000
H     3.476000000    -1.648000000     5.066000000
C     1.953000000     1.358000000     4.407000000
H     2.852000000     1.954000000     4.534000000
C     0.644000000     1.942000000     4.398000000
C     0.622000000     3.468000000     4.378000000
H     1.649000000     3.708000000     4.662000000
H    -0.100000000     3.952000000     5.039000000
C     0.326000000     3.978000000     2.916000000
C     1.330000000     4.520000000     2.115000000
H     2.362000000     4.628000000     2.439000000
C    -0.967000000     3.905000000     2.335000000
C    -1.250000000     4.234000000     1.064000000
H    -2.270000000     4.143000000     0.701000000
C    -0.225000000     4.709000000     0.263000000
O    -0.593000000     4.893000000    -1.105000000
C    -0.159000000     3.786000000    -1.968000000
C    -1.192000000     3.468000000    -3.067000000
C    -0.765000000     2.854000000    -4.250000000
H     0.288000000     2.711000000    -4.478000000
C    -2.527000000     3.599000000    -2.753000000
H    -2.769000000     4.198000000    -1.878000000
O     1.131000000     4.085000000    -2.539000000
H    -0.157000000     2.878000000    -1.346000000
C     1.066000000     4.883000000     0.801000000
C     2.263000000     5.283000000    -0.077000000
H     3.082000000     5.721000000     0.496000000
H     2.017000000     6.040000000    -0.825000000
C     2.837000000     4.021000000    -0.794000000
C     3.812000000     3.266000000    -0.106000000
H     4.303000000     3.700000000     0.761000000
C     2.199000000     3.503000000    -1.929000000
C     2.607000000     2.285000000    -2.418000000
H     2.202000000     1.992000000    -3.383000000
C     3.534000000     1.487000000    -1.755000000
O     3.971000000     0.366000000    -2.392000000
C     3.601000000    -0.903000000    -1.881000000
C     3.252000000    -1.830000000    -2.987000000
C     2.740000000    -1.299000000    -4.185000000
H     2.646000000    -0.217000000    -4.139000000
C     3.431000000    -3.166000000    -2.819000000
H     3.835000000    -3.578000000    -1.897000000
O     4.687000000    -1.425000000    -1.047000000
H     2.636000000    -0.818000000    -1.360000000
C     4.156000000     1.986000000    -0.550000000
C     5.264000000     1.170000000     0.119000000
H     5.748000000     1.846000000     0.827000000
H     6.049000000     0.889000000    -0.587000000
C     4.695000000     0.008000000     0.872000000
C     4.479000000    -1.202000000     0.305000000
C     3.934000000    -2.265000000     0.954000000
H     3.793000000    -3.253000000     0.523000000
C     3.570000000    -2.083000000     2.281000000
O     2.734000000    -2.933000000     2.892000000
C     1.357000000    -2.616000000     2.944000000
H     1.218000000    -1.833000000     2.184000000
C     0.520000000    -3.791000000     2.523000000
C    -0.730000000    -4.076000000     3.099000000
H    -1.182000000    -3.551000000     3.936000000
C     0.954000000    -4.548000000     1.414000000
H     1.913000000    -4.428000000     0.916000000
C     0.029000000    -5.547000000     0.942000000
O     0.331000000    -6.385000000    -0.166000000
C    -1.166000000    -5.832000000     1.528000000
H    -1.810000000    -6.595000000     1.098000000
C    -1.445000000    -5.237000000     2.702000000
O    -2.594000000    -5.579000000     3.370000000
C    -3.526000000    -4.671000000     3.814000000
C    -3.989000000    -3.663000000     3.014000000
H    -3.447000000    -3.452000000     2.096000000
C    -4.121000000    -4.870000000     5.074000000
H    -3.882000000    -5.679000000     5.760000000
C    -5.085000000    -4.008000000     5.568000000
H    -5.534000000    -4.209000000     6.537000000
C    -5.542000000    -2.955000000     4.801000000
H    -6.394000000    -2.326000000     5.044000000
C    -5.024000000    -2.805000000     3.523000000
O    -5.445000000    -1.834000000     2.706000000
C    -5.156000000    -0.518000000     2.770000000
C    -5.948000000     0.346000000     2.057000000
H    -6.937000000    -0.072000000     1.888000000
C    -5.649000000     1.667000000     1.768000000
O    -6.505000000     2.419000000     1.051000000
C    -6.047000000     3.308000000     0.072000000
C    -5.560000000     2.781000000    -1.134000000
H    -5.727000000     1.735000000    -1.378000000
C    -6.183000000     4.678000000     0.275000000
H    -6.457000000     4.997000000     1.278000000
C    -5.776000000     5.593000000    -0.706000000
H    -5.773000000     6.655000000    -0.474000000
C    -5.312000000     5.114000000    -1.873000000
H    -5.082000000     5.767000000    -2.710000000
C    -5.206000000     3.729000000    -2.088000000
O    -4.828000000     3.310000000    -3.352000000
C    -3.504000000     3.191000000    -3.633000000
C    -3.157000000     2.537000000    -4.820000000
H    -3.957000000     2.180000000    -5.465000000
C    -1.828000000     2.381000000    -5.119000000
O    -1.541000000     1.906000000    -6.350000000
C    -0.338000000     1.486000000    -6.728000000
C     0.109000000     0.244000000    -6.357000000
H    -0.603000000    -0.438000000    -5.900000000
C     0.588000000     2.369000000    -7.349000000
H     0.204000000     3.355000000    -7.598000000
C     1.880000000     1.915000000    -7.660000000
H     2.604000000     2.543000000    -8.174000000
C     2.223000000     0.615000000    -7.334000000
H     3.174000000     0.174000000    -7.621000000
C     1.365000000    -0.271000000    -6.679000000
O     1.714000000    -1.591000000    -6.333000000
C     2.364000000    -2.096000000    -5.236000000
C     2.499000000    -3.494000000    -5.094000000
H     2.239000000    -4.225000000    -5.855000000
C     3.033000000    -3.977000000    -3.901000000
O     3.253000000    -5.317000000    -3.818000000
C     3.020000000    -6.008000000    -2.597000000
C     4.009000000    -6.756000000    -2.042000000
H     4.956000000    -6.739000000    -2.575000000
C     3.881000000    -7.274000000    -0.781000000
H     4.635000000    -7.933000000    -0.357000000
C     2.655000000    -7.176000000    -0.169000000
H     2.427000000    -7.553000000     0.825000000
C     1.575000000    -6.510000000    -0.807000000
C     1.792000000    -5.887000000    -2.010000000
H     1.115000000    -5.200000000    -2.512000000
C    -2.820000000     0.074000000    -0.353000000
H    -3.754000000     0.624000000    -0.425000000
C    -1.664000000     0.788000000    -0.030000000
H    -1.684000000     1.867000000     0.098000000
C    -0.462000000     0.169000000     0.078000000
C     0.779000000     0.940000000     0.353000000
H     1.337000000     0.489000000     1.176000000
H     1.400000000     0.886000000    -0.544000000
H     0.478000000     1.961000000     0.594000000
C    -0.336000000    -1.228000000    -0.089000000
H     0.679000000    -1.617000000    -0.073000000
C    -1.476000000    -1.955000000    -0.361000000
H    -1.409000000    -3.037000000    -0.427000000
C    -2.716000000    -1.327000000    -0.487000000
C    -3.999000000    -2.132000000    -0.736000000
O    -3.926000000    -3.319000000    -0.889000000
O    -4.947000000    -1.574000000    -1.159000000
O    -8.980000000    -2.128000000    -4.586000000
H    -8.114000000    -1.725000000    -4.523000000
H    -9.130000000    -2.228000000    -5.526000000
O    -8.600000000    -6.009000000    -1.616000000
H    -9.035000000    -5.249000000    -1.229000000
H    -7.679000000    -5.754000000    -1.675000000
O    -6.076000000    -3.328000000    -5.994000000
H    -5.363000000    -3.110000000    -5.394000000
H    -6.346000000    -2.487000000    -6.361000000
O    -4.983000000    -7.542000000    -1.495000000
H    -4.259000000    -7.948000000    -1.020000000
H    -5.134000000    -6.714000000    -1.040000000
O    -5.318000000    -5.570000000     0.370000000
H    -6.142000000    -5.951000000     0.673000000
H    -5.399000000    -4.637000000     0.566000000
O    -4.016000000    -7.628000000     1.802000000
H    -4.248000000    -6.867000000     1.270000000
H    -3.202000000    -7.375000000     2.239000000
O    -6.316000000    -3.884000000    -2.085000000
H    -5.455000000    -3.476000000    -1.995000000
H    -6.847000000    -3.475000000    -1.400000000
O    -7.175000000    -3.121000000     0.395000000
H    -8.052000000    -3.046000000     0.770000000
H    -6.649000000    -2.493000000     0.889000000
O    -2.612000000    -2.031000000    -5.816000000
H    -2.190000000    -2.716000000    -5.296000000
H    -3.129000000    -1.534000000    -5.181000000
O    -8.940000000     1.711000000    -0.903000000
H    -8.280000000     2.378000000    -0.718000000
H    -8.441000000     0.898000000    -0.986000000
O    -4.946000000    -1.291000000    -3.857000000
H    -5.750000000    -0.837000000    -4.109000000
H    -5.020000000    -1.399000000    -2.908000000
O    -1.844000000    -3.563000000    -3.283000000
H    -2.748000000    -3.339000000    -3.061000000
H    -1.352000000    -2.758000000    -3.124000000
O    -2.587000000    -5.625000000    -1.394000000
H    -3.224000000    -4.952000000    -1.156000000
H    -1.956000000    -5.172000000    -1.953000000
O    -1.736000000    -0.505000000    -3.523000000
H    -1.526000000    -0.121000000    -2.672000000
H    -2.298000000     0.144000000    -3.947000000
O    -1.467000000    -6.007000000    -4.472000000
H    -1.393000000    -5.142000000    -4.069000000
H    -2.274000000    -5.964000000    -4.984000000
O    -9.291000000    -2.385000000    -1.870000000
H    -9.429000000    -2.473000000    -2.813000000
H    -9.561000000    -3.229000000    -1.508000000
O    -7.270000000     0.379000000    -3.705000000
H    -7.201000000     0.094000000    -2.794000000
H    -7.803000000     1.173000000    -3.668000000
O    -7.436000000    -0.417000000    -0.977000000
H    -6.588000000    -0.853000000    -1.065000000
H    -8.078000000    -1.101000000    -1.166000000
O    -4.386000000    -5.715000000    -3.937000000
H    -4.957000000    -5.055000000    -3.543000000
H    -4.187000000    -6.317000000    -3.221000000
