218
-1473.63520
C    -4.940000000     0.134000000     1.729000000
H    -4.864000000     1.059000000     1.163000000
C    -4.020000000    -0.136000000     2.769000000
C    -4.043000000    -1.463000000     3.271000000
H    -3.271000000    -1.733000000     3.986000000
C    -2.838000000     0.831000000     3.030000000
O    -3.234000000     2.214000000     2.978000000
H    -2.102000000     0.704000000     2.222000000
O    -2.212000000     0.616000000     4.344000000
C    -0.869000000     0.626000000     4.516000000
C    -0.213000000    -0.571000000     4.537000000
H    -0.814000000    -1.468000000     4.413000000
C     1.158000000    -0.622000000     4.428000000
O     1.848000000    -1.807000000     4.302000000
C     1.848000000     0.604000000     4.422000000
C     3.382000000     0.693000000     4.384000000
H     3.712000000     1.607000000     4.882000000
C     3.798000000     0.616000000     2.929000000
C     4.037000000     1.796000000     2.184000000
H     3.928000000     2.725000000     2.737000000
H     3.759000000    -0.088000000     5.048000000
C     1.169000000     1.848000000     4.441000000
H     1.696000000     2.788000000     4.303000000
C    -0.201000000     1.844000000     4.463000000
C    -0.976000000     3.128000000     4.399000000
H    -0.398000000     3.916000000     4.887000000
H    -1.874000000     3.121000000     5.021000000
C    -1.281000000     3.534000000     2.997000000
C    -0.377000000     4.399000000     2.304000000
H     0.558000000     4.747000000     2.737000000
C    -2.403000000     3.075000000     2.290000000
C    -2.698000000     3.317000000     0.936000000
H    -3.645000000     3.077000000     0.459000000
C    -1.775000000     4.155000000     0.321000000
O    -2.060000000     4.372000000    -1.058000000
C    -1.249000000     3.708000000    -2.062000000
C    -2.215000000     3.087000000    -3.190000000
C    -1.674000000     2.465000000    -4.328000000
H    -0.599000000     2.322000000    -4.404000000
C    -3.609000000     3.028000000    -2.987000000
H    -4.021000000     3.411000000    -2.056000000
O    -0.253000000     4.682000000    -2.516000000
H    -0.774000000     2.913000000    -1.469000000
C    -0.581000000     4.685000000     0.972000000
C     0.403000000     5.623000000     0.174000000
H     1.066000000     6.208000000     0.815000000
H    -0.077000000     6.417000000    -0.400000000
C     1.277000000     4.797000000    -0.689000000
C     2.498000000     4.435000000    -0.094000000
H     2.771000000     4.774000000     0.902000000
C     0.978000000     4.378000000    -1.972000000
C     1.813000000     3.437000000    -2.597000000
H     1.570000000     3.097000000    -3.601000000
C     2.948000000     3.019000000    -2.021000000
O     3.655000000     1.975000000    -2.619000000
C     3.628000000     0.647000000    -2.022000000
C     3.511000000    -0.505000000    -3.087000000
C     3.027000000    -0.208000000    -4.329000000
H     2.724000000     0.818000000    -4.522000000
C     3.988000000    -1.828000000    -2.845000000
H     4.443000000    -2.094000000    -1.894000000
O     4.746000000     0.375000000    -1.156000000
H     2.677000000     0.585000000    -1.473000000
C     3.324000000     3.519000000    -0.745000000
C     4.549000000     3.013000000    -0.004000000
H     4.860000000     3.790000000     0.698000000
H     5.440000000     2.967000000    -0.633000000
C     4.350000000     1.736000000     0.820000000
C     4.503000000     0.494000000     0.172000000
C     4.405000000    -0.663000000     0.916000000
H     4.545000000    -1.624000000     0.427000000
C     3.968000000    -0.648000000     2.264000000
O     3.644000000    -1.880000000     2.814000000
C     2.250000000    -2.140000000     3.002000000
H     1.684000000    -1.634000000     2.207000000
C     1.995000000    -3.586000000     2.669000000
C     0.856000000    -4.147000000     3.203000000
H     0.199000000    -3.511000000     3.791000000
C     2.733000000    -4.301000000     1.689000000
H     3.562000000    -3.816000000     1.179000000
C     2.420000000    -5.644000000     1.430000000
O     3.096000000    -6.320000000     0.434000000
C     1.284000000    -6.238000000     2.011000000
H     1.083000000    -7.267000000     1.723000000
C     0.433000000    -5.437000000     2.833000000
O    -0.839000000    -5.951000000     3.124000000
C    -1.759000000    -5.373000000     3.916000000
C    -2.944000000    -4.936000000     3.386000000
H    -3.142000000    -5.000000000     2.319000000
C    -1.585000000    -5.268000000     5.306000000
H    -0.667000000    -5.695000000     5.702000000
C    -2.554000000    -4.550000000     6.053000000
H    -2.372000000    -4.377000000     7.111000000
C    -3.695000000    -4.083000000     5.444000000
H    -4.461000000    -3.522000000     5.973000000
C    -3.922000000    -4.282000000     4.108000000
O    -5.001000000    -3.735000000     3.333000000
C    -4.969000000    -2.395000000     2.859000000
C    -5.983000000    -1.995000000     1.960000000
H    -6.696000000    -2.754000000     1.648000000
C    -5.956000000    -0.732000000     1.393000000
O    -6.787000000    -0.549000000     0.258000000
C    -6.804000000     0.652000000    -0.355000000
C    -6.240000000     0.766000000    -1.654000000
H    -5.807000000    -0.085000000    -2.174000000
C    -7.395000000     1.756000000     0.263000000
H    -7.884000000     1.667000000     1.230000000
C    -7.548000000     2.918000000    -0.476000000
H    -8.083000000     3.748000000    -0.023000000
C    -7.042000000     3.039000000    -1.793000000
H    -7.255000000     3.937000000    -2.366000000
C    -6.254000000     2.018000000    -2.295000000
O    -5.733000000     2.158000000    -3.577000000
C    -4.394000000     2.294000000    -3.849000000
C    -3.865000000     1.789000000    -5.034000000
H    -4.592000000     1.333000000    -5.701000000
C    -2.490000000     1.868000000    -5.324000000
O    -1.994000000     1.381000000    -6.508000000
C    -0.669000000     1.272000000    -6.768000000
C     0.084000000     0.215000000    -6.427000000
H    -0.382000000    -0.589000000    -5.863000000
C    -0.082000000     2.254000000    -7.642000000
H    -0.633000000     3.135000000    -7.964000000
C     1.279000000     2.175000000    -8.010000000
H     1.680000000     2.888000000    -8.726000000
C     2.021000000     1.081000000    -7.617000000
H     3.014000000     0.946000000    -8.038000000
C     1.406000000     0.124000000    -6.789000000
O     2.269000000    -0.954000000    -6.496000000
C     2.799000000    -1.199000000    -5.231000000
C     3.082000000    -2.489000000    -4.905000000
H     3.001000000    -3.269000000    -5.658000000
C     3.798000000    -2.814000000    -3.751000000
O     4.195000000    -4.170000000    -3.622000000
C     4.643000000    -4.597000000    -2.426000000
C     5.919000000    -4.487000000    -1.969000000
H     6.645000000    -4.066000000    -2.661000000
C     6.273000000    -5.037000000    -0.709000000
H     7.320000000    -5.032000000    -0.419000000
C     5.320000000    -5.612000000     0.123000000
H     5.631000000    -6.017000000     1.083000000
C     4.034000000    -5.772000000    -0.372000000
C     3.750000000    -5.290000000    -1.644000000
H     2.731000000    -5.362000000    -2.015000000
C    -2.222000000    -0.276000000    -2.046000000
H    -3.241000000     0.037000000    -2.257000000
C    -1.500000000     0.328000000    -1.004000000
H    -2.068000000     1.151000000    -0.577000000
C    -0.233000000    -0.061000000    -0.526000000
C     0.412000000     0.577000000     0.693000000
H     1.473000000     0.735000000     0.488000000
H    -0.042000000     1.552000000     0.886000000
H     0.393000000    -0.012000000     1.612000000
C     0.285000000    -1.151000000    -1.156000000
H     1.252000000    -1.558000000    -0.873000000
C    -0.351000000    -1.742000000    -2.290000000
H     0.188000000    -2.503000000    -2.848000000
C    -1.629000000    -1.323000000    -2.699000000
C    -2.255000000    -1.856000000    -3.972000000
O    -1.565000000    -2.521000000    -4.726000000
O    -3.422000000    -1.816000000    -4.174000000
O    -3.053000000    -7.524000000    -5.057000000
H    -2.333000000    -7.964000000    -4.606000000
H    -3.304000000    -6.811000000    -4.469000000
O    -3.442000000    -4.731000000    -3.803000000
H    -3.277000000    -3.789000000    -3.769000000
H    -3.672000000    -4.901000000    -4.717000000
O     1.773000000    -6.784000000    -5.277000000
H     2.477000000    -6.648000000    -5.911000000
H     1.475000000    -5.901000000    -5.057000000
O    -3.820000000     0.466000000    -8.414000000
H    -4.242000000    -0.215000000    -7.890000000
H    -3.086000000     0.763000000    -7.876000000
O     0.990000000    -2.522000000    -8.908000000
H     1.201000000    -2.131000000    -9.757000000
H     1.759000000    -2.346000000    -8.366000000
O    -4.134000000    -2.545000000    -0.609000000
H    -4.295000000    -3.237000000     0.032000000
H    -3.184000000    -2.423000000    -0.596000000
O    -2.374000000    -5.767000000    -1.373000000
H    -2.692000000    -5.379000000    -0.558000000
H    -3.020000000    -5.509000000    -2.030000000
O    -2.951000000    -3.872000000    -9.434000000
H    -2.432000000    -3.438000000    -8.757000000
H    -2.694000000    -3.439000000   -10.248000000
O    -5.150000000    -5.318000000    -6.351000000
H    -5.477000000    -5.339000000    -7.251000000
H    -5.896000000    -5.019000000    -5.832000000
O    -7.253000000    -3.929000000    -5.136000000
H    -6.738000000    -3.381000000    -4.545000000
H    -8.089000000    -4.047000000    -4.687000000
O     0.083000000    -4.595000000    -4.747000000
H    -0.259000000    -3.735000000    -4.502000000
H    -0.543000000    -4.928000000    -5.390000000
O    -4.216000000    -1.631000000    -6.797000000
H    -4.414000000    -1.621000000    -5.861000000
H    -3.272000000    -1.786000000    -6.841000000
O    -5.851000000    -1.645000000    -9.285000000
H    -5.598000000    -2.005000000   -10.135000000
H    -5.057000000    -1.705000000    -8.754000000
O     0.223000000    -6.039000000    -2.326000000
H     0.218000000    -5.415000000    -3.051000000
H    -0.594000000    -5.870000000    -1.858000000
O    -5.430000000    -6.697000000    -3.657000000
H    -5.160000000    -5.944000000    -3.132000000
H    -5.341000000    -6.402000000    -4.564000000
O    -6.992000000    -4.567000000    -0.299000000
H    -6.753000000    -4.166000000    -1.135000000
H    -7.047000000    -5.504000000    -0.490000000
O    -1.287000000    -5.684000000    -6.953000000
H    -1.881000000    -6.422000000    -6.813000000
H    -1.848000000    -4.911000000    -6.900000000
O    -5.627000000    -2.925000000    -3.114000000
H    -4.901000000    -2.573000000    -3.630000000
H    -5.267000000    -3.026000000    -2.233000000
O    -1.457000000    -2.440000000    -7.443000000
H    -0.563000000    -2.263000000    -7.735000000
H    -1.377000000    -2.586000000    -6.500000000
