218
-1459.75920
C    -4.548000000     0.002000000     2.305000000
H    -4.531000000     1.013000000     1.906000000
C    -3.404000000    -0.294000000     3.032000000
C    -3.333000000    -1.572000000     3.632000000
H    -2.480000000    -1.775000000     4.274000000
C    -2.307000000     0.727000000     3.244000000
O    -2.866000000     2.139000000     3.087000000
H    -1.582000000     0.507000000     2.447000000
O    -1.620000000     0.679000000     4.528000000
C    -0.326000000     0.981000000     4.683000000
C     0.485000000    -0.120000000     4.858000000
H    -0.049000000    -1.061000000     4.961000000
C     1.847000000    -0.069000000     4.578000000
O     2.486000000    -1.287000000     4.394000000
C     2.413000000     1.143000000     4.212000000
C     3.858000000     1.348000000     3.840000000
H     4.160000000     2.367000000     4.090000000
C     4.074000000     1.053000000     2.360000000
C     4.263000000     2.166000000     1.524000000
H     4.218000000     3.202000000     1.849000000
H     4.439000000     0.661000000     4.458000000
C     1.628000000     2.294000000     4.276000000
H     2.139000000     3.239000000     4.111000000
C     0.256000000     2.231000000     4.481000000
C    -0.652000000     3.475000000     4.321000000
H    -0.046000000     4.328000000     4.635000000
H    -1.509000000     3.438000000     4.997000000
C    -1.090000000     3.789000000     2.911000000
C    -0.353000000     4.585000000     2.014000000
H     0.553000000     5.081000000     2.353000000
C    -2.105000000     3.055000000     2.371000000
C    -2.476000000     3.286000000     1.074000000
H    -3.347000000     2.724000000     0.749000000
C    -1.772000000     4.126000000     0.185000000
O    -2.243000000     4.192000000    -1.084000000
C    -1.527000000     3.330000000    -2.036000000
C    -2.482000000     2.695000000    -3.034000000
C    -2.099000000     2.539000000    -4.403000000
H    -1.183000000     2.944000000    -4.823000000
C    -3.704000000     2.177000000    -2.564000000
H    -3.899000000     2.396000000    -1.517000000
O    -0.552000000     4.118000000    -2.705000000
H    -1.072000000     2.556000000    -1.400000000
C    -0.690000000     4.805000000     0.664000000
C     0.132000000     5.630000000    -0.304000000
H     0.731000000     6.295000000     0.321000000
H    -0.527000000     6.114000000    -1.027000000
C     1.112000000     4.705000000    -1.151000000
C     2.412000000     4.506000000    -0.730000000
H     2.737000000     5.124000000     0.103000000
C     0.691000000     4.010000000    -2.265000000
C     1.536000000     3.221000000    -2.984000000
H     1.096000000     2.728000000    -3.847000000
C     2.781000000     2.905000000    -2.486000000
O     3.483000000     1.856000000    -3.103000000
C     3.399000000     0.551000000    -2.447000000
C     3.143000000    -0.536000000    -3.464000000
C     2.258000000    -0.294000000    -4.572000000
H     1.714000000     0.639000000    -4.691000000
C     3.612000000    -1.823000000    -3.323000000
H     4.262000000    -2.148000000    -2.515000000
O     4.521000000     0.281000000    -1.695000000
H     2.479000000     0.540000000    -1.845000000
C     3.249000000     3.590000000    -1.381000000
C     4.606000000     3.172000000    -0.781000000
H     5.061000000     4.044000000    -0.306000000
H     5.226000000     2.984000000    -1.660000000
C     4.470000000     1.966000000     0.155000000
C     4.420000000     0.631000000    -0.414000000
C     4.343000000    -0.449000000     0.430000000
H     4.293000000    -1.420000000    -0.056000000
C     4.157000000    -0.217000000     1.813000000
O     3.995000000    -1.364000000     2.611000000
C     2.640000000    -1.664000000     3.020000000
H     1.970000000    -1.089000000     2.364000000
C     2.217000000    -3.153000000     2.854000000
C     1.409000000    -3.797000000     3.754000000
H     1.090000000    -3.329000000     4.682000000
C     2.538000000    -3.811000000     1.627000000
H     3.083000000    -3.216000000     0.898000000
C     2.186000000    -5.142000000     1.398000000
O     2.436000000    -5.732000000     0.229000000
C     1.389000000    -5.808000000     2.327000000
H     0.941000000    -6.776000000     2.118000000
C     1.011000000    -5.099000000     3.459000000
O     0.250000000    -5.748000000     4.453000000
C    -0.913000000    -5.275000000     4.948000000
C    -1.835000000    -4.707000000     4.055000000
H    -1.659000000    -4.691000000     2.982000000
C    -1.175000000    -5.495000000     6.290000000
H    -0.423000000    -5.890000000     6.969000000
C    -2.442000000    -5.126000000     6.756000000
H    -2.701000000    -5.260000000     7.803000000
C    -3.408000000    -4.544000000     5.910000000
H    -4.403000000    -4.251000000     6.236000000
C    -3.078000000    -4.375000000     4.559000000
O    -4.018000000    -3.862000000     3.675000000
C    -4.205000000    -2.559000000     3.240000000
C    -5.309000000    -2.262000000     2.355000000
H    -6.037000000    -2.990000000     2.006000000
C    -5.569000000    -0.933000000     2.094000000
O    -6.711000000    -0.668000000     1.332000000
C    -6.782000000     0.391000000     0.505000000
C    -6.328000000     0.199000000    -0.763000000
H    -6.014000000    -0.779000000    -1.120000000
C    -7.346000000     1.582000000     0.876000000
H    -7.573000000     1.683000000     1.934000000
C    -7.352000000     2.595000000    -0.101000000
H    -7.641000000     3.607000000     0.170000000
C    -6.811000000     2.411000000    -1.342000000
H    -6.778000000     3.272000000    -2.004000000
C    -6.287000000     1.170000000    -1.750000000
O    -5.690000000     0.995000000    -2.973000000
C    -4.514000000     1.468000000    -3.438000000
C    -4.174000000     1.342000000    -4.752000000
H    -4.749000000     0.739000000    -5.451000000
C    -3.016000000     1.929000000    -5.302000000
O    -2.712000000     1.708000000    -6.613000000
C    -1.464000000     1.375000000    -7.036000000
C    -0.872000000     0.212000000    -6.617000000
H    -1.364000000    -0.547000000    -6.014000000
C    -0.770000000     2.347000000    -7.825000000
H    -1.335000000     3.213000000    -8.160000000
C     0.643000000     2.050000000    -8.105000000
H     1.210000000     2.721000000    -8.745000000
C     1.173000000     0.798000000    -7.645000000
H     2.177000000     0.499000000    -7.935000000
C     0.403000000    -0.087000000    -6.954000000
O     0.900000000    -1.248000000    -6.414000000
C     1.968000000    -1.286000000    -5.466000000
C     2.514000000    -2.587000000    -5.264000000
H     2.221000000    -3.440000000    -5.871000000
C     3.299000000    -2.880000000    -4.175000000
O     3.889000000    -4.096000000    -4.037000000
C     4.238000000    -4.612000000    -2.783000000
C     5.568000000    -4.766000000    -2.410000000
H     6.352000000    -4.443000000    -3.090000000
C     5.868000000    -5.155000000    -1.117000000
H     6.872000000    -5.072000000    -0.709000000
C     4.789000000    -5.555000000    -0.234000000
H     4.940000000    -5.680000000     0.835000000
C     3.496000000    -5.510000000    -0.622000000
C     3.252000000    -4.959000000    -1.896000000
H     2.222000000    -4.767000000    -2.185000000
C    -0.479000000    -1.599000000    -3.076000000
H    -0.838000000    -1.513000000    -4.099000000
C    -0.321000000    -0.465000000    -2.233000000
H    -0.608000000     0.477000000    -2.693000000
C    -0.041000000    -0.579000000    -0.900000000
C     0.068000000     0.646000000    -0.018000000
H     0.814000000     1.220000000    -0.570000000
H    -0.873000000     1.198000000     0.037000000
H     0.527000000     0.261000000     0.895000000
C     0.187000000    -1.821000000    -0.401000000
H     0.401000000    -1.914000000     0.661000000
C     0.151000000    -3.003000000    -1.221000000
H     0.337000000    -4.011000000    -0.858000000
C    -0.274000000    -2.849000000    -2.537000000
C    -0.669000000    -4.068000000    -3.400000000
O    -0.377000000    -5.159000000    -2.879000000
O    -1.375000000    -3.971000000    -4.383000000
O    -3.316000000    -8.655000000    -4.978000000
H    -2.855000000    -9.302000000    -4.444000000
H    -2.832000000    -7.841000000    -4.840000000
O    -1.883000000    -6.338000000    -5.344000000
H    -1.680000000    -5.414000000    -5.196000000
H    -1.886000000    -6.433000000    -6.296000000
O     3.329000000    -6.985000000    -6.246000000
H     3.700000000    -6.221000000    -6.686000000
H     2.436000000    -6.723000000    -6.023000000
O     2.528000000    -8.153000000    -2.240000000
H     3.405000000    -7.771000000    -2.202000000
H     2.323000000    -8.188000000    -3.175000000
O    -2.844000000    -1.514000000    -9.121000000
H    -2.707000000    -1.822000000    -8.225000000
H    -3.481000000    -0.805000000    -9.036000000
O    -2.958000000    -3.253000000    -0.431000000
H    -3.279000000    -3.922000000     0.174000000
H    -2.065000000    -3.073000000    -0.138000000
O    -1.033000000    -6.569000000    -0.481000000
H    -1.734000000    -6.984000000    -0.984000000
H    -0.671000000    -5.910000000    -1.074000000
O    -2.490000000    -8.011000000     1.498000000
H    -2.109000000    -8.884000000     1.402000000
H    -1.911000000    -7.440000000     0.993000000
O    -2.276000000    -6.549000000    -7.994000000
H    -2.017000000    -7.462000000    -8.118000000
H    -3.192000000    -6.519000000    -8.268000000
O    -6.323000000    -4.263000000    -4.328000000
H    -5.511000000    -4.250000000    -3.820000000
H    -6.987000000    -3.926000000    -3.727000000
O     1.050000000    -5.919000000    -5.491000000
H     0.571000000    -5.972000000    -4.664000000
H     0.424000000    -5.538000000    -6.106000000
O    -4.261000000    -5.700000000     0.660000000
H    -3.932000000    -6.233000000     1.384000000
H    -5.208000000    -5.668000000     0.797000000
O    -2.231000000    -3.040000000    -6.757000000
H    -1.942000000    -3.278000000    -5.876000000
H    -2.919000000    -3.673000000    -6.963000000
O    -0.242000000    -7.720000000    -3.693000000
H     0.096000000    -6.984000000    -3.183000000
H    -0.890000000    -7.329000000    -4.278000000
O    -4.161000000    -7.110000000    -1.868000000
H    -3.874000000    -6.295000000    -2.279000000
H    -4.338000000    -6.870000000    -0.958000000
O     0.507000000    -8.897000000     0.779000000
H     0.136000000    -8.043000000     0.561000000
H    -0.211000000    -9.514000000     0.637000000
O     0.166000000    -9.738000000    -5.581000000
H     0.862000000   -10.214000000    -5.128000000
H    -0.036000000    -9.002000000    -5.004000000
O    -3.959000000    -4.161000000    -2.925000000
H    -3.249000000    -3.992000000    -3.544000000
H    -3.769000000    -3.590000000    -2.180000000
O     0.362000000    -4.369000000    -7.909000000
H     1.116000000    -3.862000000    -8.211000000
H    -0.359000000    -3.739000000    -7.893000000
