218
-1463.56695
C    -2.150000000    -2.679000000    -3.879000000
H    -2.046000000    -1.759000000    -4.449000000
C    -2.766000000    -2.699000000    -2.600000000
C    -2.965000000    -3.967000000    -1.994000000
H    -3.516000000    -4.034000000    -1.059000000
C    -3.308000000    -1.452000000    -1.969000000
O    -3.733000000    -0.530000000    -2.943000000
H    -2.563000000    -1.023000000    -1.283000000
O    -4.456000000    -1.825000000    -1.168000000
C    -4.513000000    -1.037000000    -0.038000000
C    -4.010000000    -1.635000000     1.100000000
H    -3.661000000    -2.653000000     0.948000000
C    -3.827000000    -0.912000000     2.297000000
O    -3.282000000    -1.500000000     3.371000000
C    -4.185000000     0.487000000     2.381000000
C    -4.093000000     1.291000000     3.696000000
H    -4.839000000     2.076000000     3.836000000
C    -2.668000000     1.897000000     3.767000000
C    -2.346000000     3.146000000     3.222000000
H    -3.119000000     3.724000000     2.722000000
H    -4.141000000     0.560000000     4.507000000
C    -4.701000000     1.059000000     1.223000000
H    -5.012000000     2.086000000     1.394000000
C    -4.843000000     0.359000000     0.006000000
C    -5.256000000     1.084000000    -1.275000000
H    -5.863000000     1.914000000    -0.908000000
H    -5.936000000     0.558000000    -1.948000000
C    -4.110000000     1.620000000    -2.024000000
C    -3.702000000     2.947000000    -1.866000000
H    -4.243000000     3.656000000    -1.245000000
C    -3.380000000     0.788000000    -2.886000000
C    -2.332000000     1.245000000    -3.656000000
H    -1.803000000     0.603000000    -4.357000000
C    -1.873000000     2.534000000    -3.422000000
O    -0.638000000     2.910000000    -4.026000000
C     0.611000000     2.729000000    -3.342000000
C     1.741000000     2.086000000    -4.112000000
C     3.058000000     2.360000000    -3.752000000
H     3.279000000     3.012000000    -2.911000000
C     1.417000000     1.100000000    -5.157000000
H     0.383000000     0.790000000    -5.280000000
O     1.000000000     4.004000000    -2.854000000
H     0.443000000     2.021000000    -2.517000000
C    -2.518000000     3.360000000    -2.520000000
C    -1.929000000     4.694000000    -2.220000000
H    -2.759000000     5.276000000    -1.813000000
H    -1.555000000     5.266000000    -3.072000000
C    -0.812000000     4.612000000    -1.222000000
C    -1.130000000     5.000000000     0.113000000
H    -2.115000000     5.409000000     0.321000000
C     0.539000000     4.373000000    -1.622000000
C     1.431000000     4.285000000    -0.564000000
H     2.439000000     3.945000000    -0.788000000
C     1.077000000     4.417000000     0.748000000
O     2.047000000     4.096000000     1.692000000
C     1.781000000     2.860000000     2.353000000
C     3.022000000     1.959000000     2.436000000
C     4.008000000     2.081000000     1.459000000
H     3.830000000     2.664000000     0.559000000
C     3.282000000     1.217000000     3.590000000
H     2.534000000     1.031000000     4.357000000
O     1.245000000     3.072000000     3.709000000
H     1.113000000     2.232000000     1.745000000
C    -0.234000000     4.776000000     1.131000000
C    -0.651000000     4.945000000     2.612000000
H    -1.482000000     5.653000000     2.640000000
H     0.120000000     5.468000000     3.182000000
C    -1.018000000     3.584000000     3.209000000
C    -0.058000000     2.762000000     3.812000000
C    -0.385000000     1.503000000     4.322000000
H     0.442000000     0.872000000     4.639000000
C    -1.668000000     1.087000000     4.351000000
O    -1.894000000    -0.228000000     4.656000000
C    -1.842000000    -1.215000000     3.597000000
H    -1.536000000    -0.705000000     2.672000000
C    -1.090000000    -2.550000000     3.875000000
C    -1.235000000    -3.719000000     3.144000000
H    -2.019000000    -3.716000000     2.391000000
C    -0.077000000    -2.550000000     4.822000000
H     0.011000000    -1.667000000     5.450000000
C     0.726000000    -3.678000000     5.056000000
O     1.780000000    -3.644000000     6.013000000
C     0.599000000    -4.824000000     4.221000000
H     1.267000000    -5.679000000     4.279000000
C    -0.414000000    -4.896000000     3.311000000
O    -0.517000000    -6.010000000     2.470000000
C    -1.518000000    -6.371000000     1.627000000
C    -1.430000000    -6.035000000     0.237000000
H    -0.518000000    -5.568000000    -0.124000000
C    -2.573000000    -7.167000000     2.079000000
H    -2.538000000    -7.491000000     3.116000000
C    -3.655000000    -7.581000000     1.209000000
H    -4.572000000    -8.068000000     1.531000000
C    -3.586000000    -7.126000000    -0.075000000
H    -4.371000000    -7.437000000    -0.760000000
C    -2.464000000    -6.419000000    -0.580000000
O    -2.424000000    -6.223000000    -1.931000000
C    -2.360000000    -5.068000000    -2.537000000
C    -1.513000000    -5.041000000    -3.583000000
H    -1.166000000    -6.014000000    -3.921000000
C    -1.503000000    -3.870000000    -4.310000000
O    -0.804000000    -3.922000000    -5.504000000
C    -0.526000000    -2.806000000    -6.221000000
C     0.666000000    -2.123000000    -5.979000000
H     1.318000000    -2.376000000    -5.147000000
C    -1.329000000    -2.451000000    -7.260000000
H    -2.213000000    -3.045000000    -7.479000000
C    -0.807000000    -1.499000000    -8.208000000
H    -1.414000000    -1.213000000    -9.062000000
C     0.275000000    -0.763000000    -7.922000000
H     0.531000000     0.063000000    -8.581000000
C     1.118000000    -1.156000000    -6.856000000
O     2.354000000    -0.485000000    -6.772000000
C     2.512000000     0.550000000    -5.851000000
C     3.849000000     0.872000000    -5.481000000
H     4.625000000     0.439000000    -6.108000000
C     4.083000000     1.656000000    -4.376000000
O     5.385000000     1.903000000    -4.019000000
C     5.791000000     2.631000000    -2.875000000
C     5.709000000     1.947000000    -1.701000000
H     5.483000000     0.887000000    -1.787000000
C     6.284000000     3.938000000    -2.884000000
H     6.350000000     4.496000000    -3.815000000
C     6.720000000     4.511000000    -1.707000000
H     6.968000000     5.567000000    -1.635000000
C     6.575000000     3.839000000    -0.498000000
H     6.887000000     4.330000000     0.420000000
C     6.237000000     2.514000000    -0.536000000
O     6.241000000     1.791000000     0.650000000
C     5.230000000     1.529000000     1.578000000
C     5.481000000     0.666000000     2.660000000
H     6.504000000     0.331000000     2.818000000
C     4.507000000     0.586000000     3.698000000
O     4.788000000    -0.093000000     4.891000000
C     3.891000000    -0.624000000     5.734000000
C     3.709000000    -0.088000000     6.983000000
H     4.177000000     0.860000000     7.238000000
C     2.911000000    -0.729000000     7.914000000
H     2.703000000    -0.396000000     8.928000000
C     2.268000000    -1.974000000     7.609000000
H     1.579000000    -2.499000000     8.264000000
C     2.485000000    -2.501000000     6.391000000
C     3.277000000    -1.806000000     5.415000000
H     3.421000000    -2.246000000     4.431000000
C     1.838000000    -0.719000000    -1.542000000
H     2.106000000    -0.916000000    -2.577000000
C     0.567000000    -0.108000000    -1.287000000
H    -0.034000000     0.274000000    -2.108000000
C     0.231000000     0.106000000     0.023000000
C    -0.880000000     1.077000000     0.360000000
H    -1.807000000     0.736000000    -0.105000000
H    -1.041000000     1.005000000     1.438000000
H    -0.629000000     2.139000000     0.308000000
C     0.950000000    -0.562000000     1.042000000
H     0.587000000    -0.406000000     2.055000000
C     2.157000000    -1.372000000     0.798000000
H     2.774000000    -1.737000000     1.615000000
C     2.639000000    -1.317000000    -0.534000000
C     3.919000000    -2.004000000    -0.841000000
O     4.580000000    -2.646000000    -0.015000000
O     3.981000000    -2.398000000    -1.991000000
O     3.762000000    -5.096000000     3.257000000
H     4.113000000    -5.908000000     2.891000000
H     4.370000000    -4.418000000     2.964000000
O     8.393000000    -4.472000000    -0.636000000
H     9.019000000    -4.465000000    -1.359000000
H     8.311000000    -3.553000000    -0.380000000
O     3.693000000    -6.886000000    -2.252000000
H     3.562000000    -6.390000000    -1.444000000
H     3.587000000    -6.240000000    -2.950000000
O     5.140000000    -4.394000000    -5.363000000
H     5.382000000    -4.041000000    -4.508000000
H     5.571000000    -3.817000000    -5.993000000
O     5.044000000    -7.427000000     2.134000000
H     4.892000000    -7.883000000     1.306000000
H     5.813000000    -6.881000000     1.969000000
O     7.273000000    -1.813000000    -0.476000000
H     7.294000000    -1.195000000     0.254000000
H     6.396000000    -2.194000000    -0.443000000
O     3.531000000    -6.424000000    -5.345000000
H     4.018000000    -7.243000000    -5.438000000
H     4.207000000    -5.752000000    -5.259000000
O     8.313000000    -2.592000000    -3.642000000
H     7.517000000    -2.213000000    -4.014000000
H     8.346000000    -2.250000000    -2.748000000
O     6.082000000    -4.031000000    -2.432000000
H     6.891000000    -3.634000000    -2.109000000
H     5.412000000    -3.364000000    -2.283000000
O     6.504000000    -0.777000000    -4.753000000
H     5.566000000    -0.622000000    -4.862000000
H     6.847000000     0.050000000    -4.414000000
O     6.075000000    -2.081000000    -7.069000000
H     5.747000000    -1.339000000    -7.577000000
H     6.589000000    -1.682000000    -6.367000000
O     7.532000000    -6.276000000     1.258000000
H     8.198000000    -6.927000000     1.036000000
H     7.558000000    -5.650000000     0.534000000
O     3.657000000    -5.124000000     0.160000000
H     3.256000000    -5.034000000     1.024000000
H     3.970000000    -4.245000000    -0.052000000
O     1.661000000    -4.856000000    -6.572000000
H     2.377000000    -5.207000000    -6.043000000
H     1.099000000    -4.404000000    -5.943000000
O     6.299000000    -7.107000000    -2.727000000
H     6.459000000    -6.164000000    -2.728000000
H     5.390000000    -7.196000000    -2.441000000
O     2.212000000    -3.792000000    -3.575000000
H     1.500000000    -3.747000000    -2.937000000
H     2.965000000    -3.416000000    -3.119000000
O     1.010000000    -7.387000000    -2.803000000
H     1.104000000    -7.660000000    -3.716000000
H     1.880000000    -7.075000000    -2.555000000
O     6.492000000    -3.332000000     5.230000000
H     6.332000000    -3.200000000     4.296000000
H     5.720000000    -3.806000000     5.541000000
O     5.636000000    -3.488000000     2.273000000
H     6.405000000    -3.731000000     1.758000000
H     5.005000000    -3.169000000     1.628000000
