218
-1477.97403
C    -1.304000000    -2.871000000    -4.086000000
H    -1.349000000    -1.930000000    -4.629000000
C    -2.118000000    -3.105000000    -2.958000000
C    -2.006000000    -4.184000000    -2.227000000
H    -2.472000000    -4.134000000    -1.247000000
C    -2.849000000    -1.890000000    -2.389000000
O    -3.342000000    -0.948000000    -3.355000000
H    -2.103000000    -1.357000000    -1.781000000
O    -3.968000000    -2.259000000    -1.555000000
C    -4.206000000    -1.472000000    -0.444000000
C    -3.794000000    -1.981000000     0.757000000
H    -3.239000000    -2.915000000     0.742000000
C    -4.018000000    -1.217000000     1.937000000
O    -3.445000000    -1.757000000     3.084000000
C    -4.542000000     0.068000000     1.931000000
C    -4.631000000     1.042000000     3.069000000
H    -5.466000000     1.730000000     2.921000000
C    -3.352000000     1.759000000     3.426000000
C    -3.028000000     2.988000000     2.833000000
H    -3.666000000     3.553000000     2.157000000
H    -5.012000000     0.462000000     3.912000000
C    -5.096000000     0.549000000     0.714000000
H    -5.696000000     1.452000000     0.796000000
C    -4.875000000    -0.202000000    -0.504000000
C    -5.309000000     0.456000000    -1.797000000
H    -6.062000000     1.227000000    -1.621000000
H    -5.751000000    -0.315000000    -2.433000000
C    -4.074000000     1.171000000    -2.445000000
C    -3.828000000     2.534000000    -2.300000000
H    -4.440000000     3.174000000    -1.670000000
C    -3.219000000     0.441000000    -3.253000000
C    -2.077000000     1.020000000    -3.816000000
H    -1.423000000     0.430000000    -4.453000000
C    -1.846000000     2.367000000    -3.685000000
O    -0.721000000     2.835000000    -4.191000000
C     0.397000000     2.768000000    -3.336000000
C     1.646000000     2.245000000    -4.021000000
C     2.905000000     2.475000000    -3.502000000
H     3.094000000     2.970000000    -2.553000000
C     1.490000000     1.451000000    -5.176000000
H     0.484000000     1.285000000    -5.553000000
O     0.593000000     4.100000000    -2.861000000
H     0.239000000     2.173000000    -2.424000000
C    -2.701000000     3.127000000    -2.883000000
C    -2.259000000     4.585000000    -2.497000000
H    -3.127000000     5.212000000    -2.282000000
H    -1.868000000     5.141000000    -3.352000000
C    -1.234000000     4.479000000    -1.353000000
C    -1.784000000     4.523000000    -0.055000000
H    -2.856000000     4.657000000     0.065000000
C     0.118000000     4.326000000    -1.610000000
C     1.058000000     4.201000000    -0.556000000
H     2.118000000     4.163000000    -0.797000000
C     0.521000000     4.307000000     0.748000000
O     1.426000000     4.100000000     1.757000000
C     1.215000000     2.961000000     2.670000000
C     2.534000000     2.266000000     2.911000000
C     3.359000000     2.008000000     1.821000000
H     3.041000000     2.304000000     0.824000000
C     2.919000000     1.787000000     4.191000000
H     2.203000000     1.945000000     4.994000000
O     0.567000000     3.368000000     3.826000000
H     0.568000000     2.315000000     2.058000000
C    -0.845000000     4.511000000     0.975000000
C    -1.381000000     4.892000000     2.344000000
H    -2.201000000     5.589000000     2.162000000
H    -0.598000000     5.413000000     2.897000000
C    -1.778000000     3.618000000     3.070000000
C    -0.771000000     2.946000000     3.850000000
C    -1.064000000     1.711000000     4.357000000
H    -0.295000000     1.130000000     4.861000000
C    -2.337000000     1.136000000     4.178000000
O    -2.431000000    -0.213000000     4.431000000
C    -2.161000000    -1.174000000     3.387000000
H    -1.864000000    -0.726000000     2.428000000
C    -1.108000000    -2.266000000     3.778000000
C    -0.740000000    -3.342000000     2.931000000
H    -1.175000000    -3.441000000     1.939000000
C    -0.364000000    -2.113000000     4.943000000
H    -0.369000000    -1.229000000     5.576000000
C     0.574000000    -3.077000000     5.320000000
O     1.190000000    -2.950000000     6.514000000
C     0.837000000    -4.179000000     4.501000000
H     1.533000000    -4.945000000     4.833000000
C     0.245000000    -4.294000000     3.300000000
O     0.509000000    -5.425000000     2.551000000
C    -0.366000000    -6.015000000     1.679000000
C    -0.280000000    -5.770000000     0.318000000
H     0.552000000    -5.126000000     0.044000000
C    -1.386000000    -6.837000000     2.200000000
H    -1.319000000    -7.004000000     3.272000000
C    -2.234000000    -7.436000000     1.314000000
H    -3.048000000    -8.060000000     1.673000000
C    -2.134000000    -7.256000000    -0.052000000
H    -2.805000000    -7.805000000    -0.708000000
C    -1.094000000    -6.467000000    -0.562000000
O    -1.064000000    -6.441000000    -1.937000000
C    -1.132000000    -5.272000000    -2.632000000
C    -0.486000000    -5.151000000    -3.823000000
H     0.146000000    -5.951000000    -4.199000000
C    -0.561000000    -3.934000000    -4.513000000
O     0.261000000    -3.706000000    -5.632000000
C     0.271000000    -2.595000000    -6.417000000
C     1.325000000    -1.690000000    -6.253000000
H     2.074000000    -1.892000000    -5.492000000
C    -0.589000000    -2.494000000    -7.444000000
H    -1.413000000    -3.193000000    -7.558000000
C    -0.562000000    -1.442000000    -8.310000000
H    -1.364000000    -1.270000000    -9.023000000
C     0.423000000    -0.444000000    -8.175000000
H     0.453000000     0.415000000    -8.841000000
C     1.384000000    -0.567000000    -7.092000000
O     2.437000000     0.234000000    -7.022000000
C     2.551000000     0.963000000    -5.855000000
C     3.806000000     1.193000000    -5.370000000
H     4.683000000     0.852000000    -5.914000000
C     3.969000000     1.925000000    -4.207000000
O     5.207000000     2.249000000    -3.843000000
C     5.556000000     2.411000000    -2.524000000
C     5.181000000     1.539000000    -1.508000000
H     4.566000000     0.699000000    -1.821000000
C     6.310000000     3.565000000    -2.231000000
H     6.464000000     4.256000000    -3.055000000
C     6.738000000     3.761000000    -0.908000000
H     7.328000000     4.627000000    -0.618000000
C     6.415000000     2.824000000     0.088000000
H     6.857000000     2.977000000     1.069000000
C     5.555000000     1.788000000    -0.172000000
O     5.198000000     0.811000000     0.807000000
C     4.456000000     1.136000000     1.974000000
C     4.842000000     0.666000000     3.254000000
H     5.737000000     0.055000000     3.345000000
C     4.113000000     1.085000000     4.341000000
O     4.462000000     0.506000000     5.543000000
C     3.553000000    -0.149000000     6.378000000
C     3.465000000     0.332000000     7.675000000
H     4.130000000     1.169000000     7.875000000
C     2.639000000    -0.227000000     8.632000000
H     2.587000000     0.218000000     9.622000000
C     1.893000000    -1.375000000     8.235000000
H     1.316000000    -1.912000000     8.984000000
C     1.849000000    -1.764000000     6.914000000
C     2.631000000    -1.093000000     5.936000000
H     2.715000000    -1.466000000     4.918000000
C     1.855000000    -1.574000000    -1.572000000
H     2.258000000    -1.827000000    -2.549000000
C     0.694000000    -0.812000000    -1.421000000
H     0.130000000    -0.493000000    -2.294000000
C     0.205000000    -0.445000000    -0.096000000
C    -1.010000000     0.496000000    -0.009000000
H    -1.938000000    -0.077000000    -0.068000000
H    -1.054000000     0.946000000     0.985000000
H    -1.018000000     1.329000000    -0.716000000
C     0.826000000    -0.871000000     1.056000000
H     0.487000000    -0.664000000     2.067000000
C     1.914000000    -1.676000000     0.886000000
H     2.459000000    -2.001000000     1.768000000
C     2.462000000    -2.032000000    -0.388000000
C     3.599000000    -2.958000000    -0.362000000
O     4.038000000    -3.325000000     0.718000000
O     3.917000000    -3.617000000    -1.391000000
O     8.984000000    -0.255000000    -0.490000000
H     8.251000000    -0.556000000     0.047000000
H     8.589000000    -0.037000000    -1.334000000
O     4.371000000    -6.332000000    -4.548000000
H     3.501000000    -6.578000000    -4.863000000
H     4.950000000    -7.016000000    -4.886000000
O     5.346000000    -6.676000000     4.538000000
H     5.007000000    -7.251000000     3.852000000
H     5.847000000    -6.011000000     4.066000000
O     8.132000000    -5.221000000    -1.198000000
H     7.910000000    -4.639000000    -0.471000000
H     7.735000000    -4.809000000    -1.965000000
O     7.707000000    -5.747000000     3.426000000
H     7.799000000    -6.664000000     3.165000000
H     8.076000000    -5.712000000     4.309000000
O     8.729000000     0.395000000     2.493000000
H     8.527000000     0.848000000     3.311000000
H     8.361000000    -0.481000000     2.607000000
O     1.393000000    -8.282000000    -2.184000000
H     1.685000000    -8.708000000    -1.378000000
H     1.656000000    -7.368000000    -2.080000000
O     4.004000000    -3.169000000    -5.923000000
H     4.097000000    -3.509000000    -5.033000000
H     4.859000000    -2.791000000    -6.126000000
O     3.781000000    -7.835000000     2.489000000
H     3.921000000    -7.207000000     1.780000000
H     2.830000000    -7.869000000     2.595000000
O     6.243000000    -1.735000000     0.867000000
H     5.836000000    -0.893000000     1.067000000
H     5.528000000    -2.368000000     0.932000000
O     5.637000000    -4.208000000    -3.273000000
H     5.283000000    -5.051000000    -3.556000000
H     5.043000000    -3.920000000    -2.579000000
O     6.582000000    -1.657000000    -1.843000000
H     6.070000000    -2.267000000    -2.375000000
H     6.355000000    -1.879000000    -0.940000000
O     7.921000000    -3.992000000     1.308000000
H     7.737000000    -4.494000000     2.101000000
H     7.505000000    -3.143000000     1.460000000
O     8.277000000    -0.788000000    -3.915000000
H     7.705000000    -0.046000000    -4.112000000
H     7.908000000    -1.171000000    -3.119000000
O     4.332000000    -6.067000000     0.462000000
H     4.590000000    -5.150000000     0.552000000
H     3.609000000    -6.053000000    -0.165000000
O     2.415000000    -4.831000000    -7.188000000
H     1.577000000    -4.393000000    -7.040000000
H     3.047000000    -4.312000000    -6.691000000
O     2.855000000    -5.848000000    -1.881000000
H     3.390000000    -6.045000000    -2.650000000
H     3.160000000    -4.989000000    -1.590000000
O     5.918000000    -4.260000000     6.029000000
H     5.186000000    -4.235000000     5.412000000
H     5.901000000    -5.149000000     6.384000000
O     4.321000000    -4.094000000     3.172000000
H     3.774000000    -4.872000000     3.065000000
H     4.299000000    -3.666000000     2.317000000
