218
-1456.92833
C    -4.006000000     2.347000000     0.966000000
H    -3.426000000     2.875000000     0.213000000
C    -3.451000000     2.211000000     2.253000000
C    -4.115000000     1.449000000     3.279000000
H    -3.649000000     1.258000000     4.242000000
C    -2.143000000     2.776000000     2.561000000
O    -1.993000000     4.162000000     2.021000000
H    -1.460000000     2.101000000     2.024000000
O    -1.737000000     2.796000000     3.974000000
C    -0.484000000     2.306000000     4.254000000
C    -0.563000000     0.953000000     4.579000000
H    -1.486000000     0.385000000     4.653000000
C     0.708000000     0.285000000     4.539000000
O     0.786000000    -1.052000000     4.781000000
C     1.919000000     0.985000000     4.380000000
C     3.187000000     0.256000000     4.525000000
H     3.972000000     0.937000000     4.862000000
C     3.582000000    -0.237000000     3.153000000
C     4.298000000     0.541000000     2.200000000
H     4.554000000     1.566000000     2.455000000
H     3.125000000    -0.575000000     5.232000000
C     1.915000000     2.292000000     3.988000000
H     2.829000000     2.701000000     3.565000000
C     0.697000000     2.991000000     3.981000000
C     0.551000000     4.403000000     3.486000000
H     1.476000000     4.941000000     3.707000000
H    -0.251000000     4.960000000     3.975000000
C     0.401000000     4.512000000     1.977000000
C     1.555000000     4.739000000     1.207000000
H     2.500000000     4.828000000     1.736000000
C    -0.837000000     4.364000000     1.292000000
C    -0.845000000     4.313000000    -0.091000000
H    -1.777000000     4.200000000    -0.638000000
C     0.341000000     4.467000000    -0.805000000
O     0.241000000     4.537000000    -2.191000000
C     0.597000000     3.315000000    -2.826000000
C    -0.527000000     2.808000000    -3.827000000
C    -0.215000000     1.701000000    -4.582000000
H     0.721000000     1.150000000    -4.547000000
C    -1.752000000     3.497000000    -3.982000000
H    -2.086000000     4.314000000    -3.348000000
O     1.939000000     3.506000000    -3.413000000
H     0.728000000     2.485000000    -2.117000000
C     1.523000000     4.738000000    -0.166000000
C     2.771000000     4.978000000    -1.026000000
H     3.551000000     5.542000000    -0.511000000
H     2.652000000     5.583000000    -1.927000000
C     3.355000000     3.593000000    -1.418000000
C     4.243000000     2.873000000    -0.587000000
H     4.411000000     3.240000000     0.422000000
C     2.970000000     3.016000000    -2.673000000
C     3.317000000     1.681000000    -2.940000000
H     2.847000000     1.261000000    -3.826000000
C     4.155000000     0.970000000    -2.106000000
O     4.380000000    -0.396000000    -2.352000000
C     3.655000000    -1.333000000    -1.596000000
C     3.171000000    -2.486000000    -2.465000000
C     3.260000000    -2.377000000    -3.895000000
H     3.710000000    -1.596000000    -4.503000000
C     2.575000000    -3.668000000    -1.921000000
H     2.391000000    -3.847000000    -0.865000000
O     4.584000000    -1.715000000    -0.614000000
H     2.785000000    -0.875000000    -1.104000000
C     4.602000000     1.578000000    -0.902000000
C     5.526000000     0.784000000     0.000000000
H     6.115000000     1.301000000     0.761000000
H     6.249000000     0.233000000    -0.606000000
C     4.623000000    -0.033000000     0.940000000
C     4.276000000    -1.330000000     0.630000000
C     3.486000000    -2.115000000     1.521000000
H     3.111000000    -3.120000000     1.343000000
C     3.190000000    -1.561000000     2.761000000
O     2.464000000    -2.356000000     3.597000000
C     1.124000000    -1.964000000     3.658000000
H     0.781000000    -1.400000000     2.778000000
C     0.150000000    -3.154000000     3.654000000
C    -1.213000000    -2.973000000     4.012000000
H    -1.506000000    -1.994000000     4.382000000
C     0.550000000    -4.355000000     3.026000000
H     1.568000000    -4.531000000     2.686000000
C    -0.446000000    -5.270000000     2.739000000
O    -0.147000000    -6.538000000     2.116000000
C    -1.790000000    -5.082000000     3.050000000
H    -2.549000000    -5.842000000     2.881000000
C    -2.103000000    -3.905000000     3.702000000
O    -3.479000000    -3.808000000     3.936000000
C    -3.997000000    -2.762000000     4.604000000
C    -4.626000000    -1.752000000     3.843000000
H    -4.534000000    -1.721000000     2.760000000
C    -4.115000000    -2.853000000     5.996000000
H    -3.553000000    -3.621000000     6.522000000
C    -4.922000000    -1.957000000     6.692000000
H    -5.021000000    -2.049000000     7.771000000
C    -5.502000000    -0.913000000     5.985000000
H    -6.200000000    -0.232000000     6.464000000
C    -5.440000000    -0.884000000     4.602000000
O    -5.977000000     0.236000000     3.939000000
C    -5.320000000     0.919000000     2.933000000
C    -5.927000000     1.053000000     1.673000000
H    -6.801000000     0.474000000     1.385000000
C    -5.242000000     1.753000000     0.688000000
O    -5.681000000     1.561000000    -0.526000000
C    -5.661000000     2.571000000    -1.474000000
C    -4.665000000     2.577000000    -2.454000000
H    -3.840000000     1.876000000    -2.556000000
C    -6.694000000     3.539000000    -1.505000000
H    -7.429000000     3.651000000    -0.712000000
C    -6.586000000     4.606000000    -2.374000000
H    -7.229000000     5.480000000    -2.313000000
C    -5.628000000     4.619000000    -3.359000000
H    -5.591000000     5.435000000    -4.075000000
C    -4.757000000     3.568000000    -3.496000000
O    -3.991000000     3.571000000    -4.655000000
C    -2.725000000     2.939000000    -4.754000000
C    -2.494000000     1.757000000    -5.447000000
H    -3.264000000     1.319000000    -6.076000000
C    -1.250000000     1.140000000    -5.342000000
O    -0.958000000    -0.064000000    -6.075000000
C     0.270000000    -0.455000000    -6.407000000
C     0.784000000    -1.674000000    -5.963000000
H     0.276000000    -2.389000000    -5.320000000
C     1.012000000     0.348000000    -7.296000000
H     0.573000000     1.306000000    -7.565000000
C     2.152000000    -0.123000000    -7.933000000
H     2.776000000     0.612000000    -8.436000000
C     2.654000000    -1.407000000    -7.598000000
H     3.615000000    -1.739000000    -7.982000000
C     1.969000000    -2.145000000    -6.592000000
O     2.585000000    -3.191000000    -6.055000000
C     2.746000000    -3.392000000    -4.692000000
C     2.167000000    -4.544000000    -4.174000000
H     1.651000000    -5.322000000    -4.730000000
C     2.142000000    -4.728000000    -2.770000000
O     1.633000000    -5.938000000    -2.250000000
C     1.724000000    -6.487000000    -1.051000000
C     2.763000000    -7.381000000    -0.765000000
H     3.566000000    -7.467000000    -1.492000000
C     2.836000000    -8.022000000     0.481000000
H     3.626000000    -8.701000000     0.792000000
C     1.846000000    -7.702000000     1.462000000
H     1.863000000    -8.112000000     2.468000000
C     0.873000000    -6.742000000     1.182000000
C     0.839000000    -6.129000000    -0.056000000
H     0.019000000    -5.437000000    -0.229000000
C    -1.426000000    -2.632000000    -1.445000000
H    -1.187000000    -3.138000000    -2.377000000
C    -0.705000000    -1.469000000    -1.152000000
H     0.134000000    -1.120000000    -1.748000000
C    -0.916000000    -0.736000000     0.052000000
C    -0.180000000     0.563000000     0.317000000
H     0.733000000     0.663000000    -0.274000000
H    -0.818000000     1.408000000     0.053000000
H     0.104000000     0.658000000     1.367000000
C    -1.870000000    -1.226000000     0.931000000
H    -2.056000000    -0.630000000     1.820000000
C    -2.677000000    -2.286000000     0.535000000
H    -3.573000000    -2.471000000     1.121000000
C    -2.468000000    -3.012000000    -0.633000000
C    -3.273000000    -4.255000000    -0.942000000
O    -3.848000000    -4.808000000    -0.010000000
O    -3.156000000    -4.813000000    -2.017000000
O    -6.667000000    -8.743000000    -0.668000000
H    -6.365000000    -7.897000000    -0.999000000
H    -6.583000000    -8.672000000     0.282000000
O    -6.058000000    -1.230000000    -2.034000000
H    -6.370000000    -0.482000000    -2.542000000
H    -6.773000000    -1.424000000    -1.428000000
O    -7.890000000    -4.817000000    -1.460000000
H    -8.027000000    -3.946000000    -1.087000000
H    -8.320000000    -4.783000000    -2.314000000
O    -5.398000000    -0.041000000    -4.684000000
H    -4.733000000    -0.415000000    -4.105000000
H    -5.283000000    -0.507000000    -5.512000000
O    -3.788000000    -9.952000000    -1.107000000
H    -3.409000000    -9.170000000    -0.707000000
H    -4.639000000    -9.664000000    -1.438000000
O    -7.495000000    -2.303000000     2.352000000
H    -8.064000000    -3.072000000     2.360000000
H    -6.608000000    -2.661000000     2.386000000
O    -0.433000000    -6.657000000    -5.361000000
H    -0.086000000    -7.209000000    -4.660000000
H    -0.964000000    -6.001000000    -4.908000000
O    -5.427000000    -7.886000000     1.728000000
H    -5.318000000    -7.146000000     1.131000000
H    -4.881000000    -7.666000000     2.484000000
O    -2.082000000    -4.774000000    -4.266000000
H    -2.384000000    -4.045000000    -4.809000000
H    -2.481000000    -4.617000000    -3.410000000
O    -5.482000000    -4.883000000    -6.054000000
H    -5.428000000    -4.326000000    -5.278000000
H    -4.773000000    -4.575000000    -6.620000000
O    -5.690000000    -4.280000000     2.029000000
H    -4.917000000    -4.280000000     2.593000000
H    -5.339000000    -4.325000000     1.140000000
O    -0.141000000    -9.138000000    -0.968000000
H    -0.327000000    -8.398000000    -0.390000000
H    -0.753000000    -9.819000000    -0.689000000
O    -2.979000000    -7.293000000    -2.555000000
H    -2.677000000    -7.681000000    -1.734000000
H    -2.916000000    -6.349000000    -2.411000000
O    -5.682000000    -6.373000000    -1.226000000
H    -6.436000000    -5.785000000    -1.263000000
H    -4.936000000    -5.796000000    -1.062000000
O    -2.314000000    -8.125000000     0.276000000
H    -2.136000000    -8.801000000     0.930000000
H    -2.192000000    -7.300000000     0.745000000
O    -2.882000000    -2.265000000    -5.326000000
H    -3.645000000    -1.719000000    -5.136000000
H    -2.203000000    -1.645000000    -5.589000000
O    -5.201000000    -3.264000000    -3.688000000
H    -5.422000000    -2.622000000    -3.013000000
H    -4.620000000    -3.884000000    -3.247000000
O    -4.619000000    -8.666000000    -4.217000000
H    -4.261000000    -8.580000000    -5.101000000
H    -4.066000000    -8.100000000    -3.679000000
O    -3.523000000    -0.746000000    -2.670000000
H    -4.117000000    -0.821000000    -1.923000000
H    -2.661000000    -0.959000000    -2.312000000
