218
-1456.19387
C    -4.284000000     1.971000000     0.589000000
H    -3.612000000     2.552000000    -0.038000000
C    -3.909000000     1.567000000     1.875000000
C    -4.662000000     0.594000000     2.567000000
H    -4.437000000     0.218000000     3.561000000
C    -2.711000000     2.271000000     2.413000000
O    -2.668000000     3.673000000     2.156000000
H    -1.968000000     1.750000000     1.791000000
O    -2.493000000     2.022000000     3.860000000
C    -1.266000000     1.454000000     4.090000000
C    -1.254000000     0.100000000     4.302000000
H    -2.190000000    -0.451000000     4.346000000
C    -0.005000000    -0.520000000     4.334000000
O     0.088000000    -1.927000000     4.463000000
C     1.175000000     0.312000000     4.468000000
C     2.459000000    -0.366000000     4.821000000
H     3.119000000     0.266000000     5.419000000
C     3.227000000    -0.786000000     3.552000000
C     3.932000000     0.139000000     2.856000000
H     4.086000000     1.108000000     3.323000000
H     2.256000000    -1.247000000     5.433000000
C     1.074000000     1.714000000     4.392000000
H     1.951000000     2.343000000     4.519000000
C    -0.165000000     2.286000000     4.069000000
C    -0.314000000     3.768000000     3.962000000
H     0.530000000     4.298000000     4.408000000
H    -1.238000000     4.115000000     4.429000000
C    -0.297000000     4.181000000     2.504000000
C     0.924000000     4.654000000     2.007000000
H     1.757000000     4.616000000     2.705000000
C    -1.435000000     4.181000000     1.657000000
C    -1.253000000     4.468000000     0.265000000
H    -2.073000000     4.446000000    -0.448000000
C     0.025000000     4.962000000    -0.168000000
O     0.199000000     5.196000000    -1.500000000
C     0.704000000     4.060000000    -2.188000000
C    -0.117000000     3.853000000    -3.484000000
C     0.605000000     3.344000000    -4.601000000
H     1.650000000     3.061000000    -4.505000000
C    -1.473000000     4.126000000    -3.648000000
H    -2.053000000     4.607000000    -2.864000000
O     2.084000000     4.174000000    -2.402000000
H     0.537000000     3.155000000    -1.586000000
C     1.066000000     5.109000000     0.728000000
C     2.512000000     5.214000000     0.202000000
H     3.159000000     5.534000000     1.022000000
H     2.667000000     5.919000000    -0.618000000
C     3.146000000     3.860000000    -0.297000000
C     4.004000000     3.049000000     0.550000000
H     4.341000000     3.420000000     1.514000000
C     2.880000000     3.415000000    -1.618000000
C     3.415000000     2.105000000    -2.013000000
H     3.211000000     1.789000000    -3.033000000
C     4.165000000     1.343000000    -1.189000000
O     4.464000000     0.142000000    -1.744000000
C     3.848000000    -1.031000000    -1.099000000
C     3.335000000    -2.026000000    -2.060000000
C     2.664000000    -1.594000000    -3.198000000
H     2.571000000    -0.530000000    -3.403000000
C     3.341000000    -3.437000000    -1.811000000
H     3.789000000    -3.829000000    -0.902000000
O     4.838000000    -1.564000000    -0.222000000
H     2.930000000    -0.775000000    -0.550000000
C     4.522000000     1.807000000     0.083000000
C     5.389000000     1.007000000     0.996000000
H     5.785000000     1.691000000     1.750000000
H     6.167000000     0.632000000     0.328000000
C     4.597000000    -0.124000000     1.645000000
C     4.442000000    -1.389000000     1.060000000
C     3.794000000    -2.395000000     1.751000000
H     3.625000000    -3.332000000     1.227000000
C     3.164000000    -2.110000000     2.991000000
O     2.082000000    -2.941000000     3.382000000
C     0.671000000    -2.574000000     3.243000000
H     0.565000000    -1.781000000     2.488000000
C    -0.204000000    -3.751000000     2.787000000
C    -1.614000000    -3.683000000     2.933000000
H    -2.064000000    -2.824000000     3.424000000
C     0.418000000    -4.857000000     2.181000000
H     1.500000000    -4.957000000     2.207000000
C    -0.366000000    -5.879000000     1.729000000
O     0.236000000    -7.002000000     1.171000000
C    -1.748000000    -5.739000000     1.717000000
H    -2.368000000    -6.498000000     1.246000000
C    -2.348000000    -4.678000000     2.331000000
O    -3.679000000    -4.663000000     2.278000000
C    -4.451000000    -3.841000000     3.086000000
C    -4.976000000    -2.702000000     2.547000000
H    -4.651000000    -2.277000000     1.600000000
C    -4.848000000    -4.282000000     4.340000000
H    -4.313000000    -5.147000000     4.725000000
C    -5.881000000    -3.704000000     5.054000000
H    -6.112000000    -4.087000000     6.045000000
C    -6.454000000    -2.516000000     4.466000000
H    -7.152000000    -1.942000000     5.070000000
C    -5.991000000    -2.023000000     3.240000000
O    -6.512000000    -0.852000000     2.608000000
C    -5.742000000     0.070000000     1.900000000
C    -6.150000000     0.497000000     0.641000000
H    -7.053000000     0.087000000     0.197000000
C    -5.449000000     1.484000000    -0.022000000
O    -5.684000000     1.553000000    -1.369000000
C    -5.444000000     2.690000000    -2.093000000
C    -4.593000000     2.654000000    -3.187000000
H    -3.994000000     1.767000000    -3.376000000
C    -6.209000000     3.778000000    -1.761000000
H    -6.797000000     3.772000000    -0.847000000
C    -6.092000000     4.925000000    -2.486000000
H    -6.614000000     5.851000000    -2.260000000
C    -5.145000000     4.928000000    -3.545000000
H    -4.929000000     5.805000000    -4.151000000
C    -4.387000000     3.809000000    -3.921000000
O    -3.537000000     3.879000000    -5.021000000
C    -2.160000000     3.792000000    -4.873000000
C    -1.420000000     3.321000000    -5.977000000
H    -1.972000000     2.987000000    -6.852000000
C    -0.056000000     3.068000000    -5.802000000
O     0.610000000     2.430000000    -6.769000000
C     1.492000000     1.391000000    -6.571000000
C     1.011000000     0.177000000    -6.024000000
H    -0.064000000     0.178000000    -5.867000000
C     2.884000000     1.636000000    -6.704000000
H     3.260000000     2.631000000    -6.927000000
C     3.729000000     0.629000000    -6.399000000
H     4.805000000     0.733000000    -6.518000000
C     3.267000000    -0.610000000    -5.870000000
H     3.968000000    -1.333000000    -5.459000000
C     1.856000000    -0.834000000    -5.727000000
O     1.430000000    -1.986000000    -5.130000000
C     2.070000000    -2.545000000    -4.020000000
C     2.221000000    -3.938000000    -3.826000000
H     2.015000000    -4.714000000    -4.559000000
C     2.884000000    -4.343000000    -2.691000000
O     3.097000000    -5.660000000    -2.440000000
C     2.872000000    -6.337000000    -1.237000000
C     3.944000000    -7.118000000    -0.675000000
H     4.879000000    -7.179000000    -1.227000000
C     3.768000000    -7.693000000     0.573000000
H     4.601000000    -8.169000000     1.084000000
C     2.500000000    -7.724000000     1.160000000
H     2.261000000    -8.368000000     2.003000000
C     1.467000000    -6.993000000     0.613000000
C     1.660000000    -6.211000000    -0.586000000
H     0.795000000    -5.735000000    -1.041000000
C    -0.336000000    -0.726000000    -2.460000000
H    -0.256000000    -0.547000000    -3.529000000
C     0.340000000     0.158000000    -1.606000000
H     0.856000000     0.967000000    -2.117000000
C     0.113000000     0.091000000    -0.211000000
C     0.837000000     1.025000000     0.757000000
H     1.403000000     1.798000000     0.233000000
H     0.076000000     1.571000000     1.319000000
H     1.530000000     0.485000000     1.406000000
C    -0.796000000    -0.884000000     0.256000000
H    -1.116000000    -0.967000000     1.292000000
C    -1.223000000    -1.823000000    -0.551000000
H    -1.916000000    -2.522000000    -0.090000000
C    -1.091000000    -1.787000000    -1.941000000
C    -1.810000000    -2.754000000    -2.807000000
O    -2.566000000    -3.599000000    -2.340000000
O    -1.731000000    -2.758000000    -4.042000000
O    -4.792000000    -3.258000000    -1.010000000
H    -5.322000000    -3.352000000    -1.801000000
H    -3.890000000    -3.371000000    -1.311000000
O    -4.396000000    -0.951000000    -3.052000000
H    -4.080000000    -1.797000000    -2.733000000
H    -5.164000000    -0.763000000    -2.512000000
O    -4.985000000    -7.382000000    -3.460000000
H    -4.981000000    -8.246000000    -3.871000000
H    -4.500000000    -6.825000000    -4.069000000
O    -6.545000000    -3.780000000    -3.288000000
H    -7.008000000    -4.569000000    -3.569000000
H    -5.767000000    -3.747000000    -3.846000000
O    -0.509000000    -5.809000000    -3.424000000
H    -0.629000000    -5.655000000    -4.361000000
H    -0.939000000    -5.065000000    -3.002000000
O    -2.674000000    -0.668000000    -5.567000000
H    -2.604000000    -1.465000000    -5.042000000
H    -2.778000000     0.034000000    -4.925000000
O    -4.089000000    -4.428000000    -4.449000000
H    -3.364000000    -4.081000000    -3.929000000
H    -3.783000000    -4.372000000    -5.354000000
O     2.301000000    -3.994000000    -7.475000000
H     1.513000000    -3.728000000    -7.003000000
H     3.019000000    -3.582000000    -6.995000000
O    -2.810000000    -4.664000000    -7.151000000
H    -2.621000000    -4.236000000    -7.986000000
H    -3.564000000    -5.225000000    -7.335000000
O    -2.963000000    -6.224000000    -1.563000000
H    -2.729000000    -5.326000000    -1.796000000
H    -3.763000000    -6.400000000    -2.058000000
O    -3.444000000    -0.938000000    -8.049000000
H    -3.175000000    -0.837000000    -7.136000000
H    -4.031000000    -0.199000000    -8.209000000
O    -7.270000000    -1.205000000    -2.261000000
H    -8.180000000    -1.249000000    -1.969000000
H    -7.095000000    -2.071000000    -2.630000000
O    -5.863000000     0.133000000    -5.317000000
H    -5.605000000    -0.215000000    -4.463000000
H    -5.909000000    -0.637000000    -5.885000000
O     1.594000000    -7.713000000    -4.598000000
H     1.020000000    -7.255000000    -3.985000000
H     2.274000000    -8.100000000    -4.046000000
O    -5.777000000    -2.122000000    -6.524000000
H    -6.459000000    -2.701000000    -6.185000000
H    -5.134000000    -2.713000000    -6.917000000
O    -2.423000000    -8.911000000    -0.518000000
H    -2.392000000    -9.306000000    -1.389000000
H    -2.260000000    -7.980000000    -0.671000000
O     0.882000000    -6.686000000    -7.299000000
H     0.495000000    -5.910000000    -6.894000000
H     1.220000000    -7.198000000    -6.564000000
O    -2.236000000    -9.224000000    -3.489000000
H    -2.840000000    -9.263000000    -4.231000000
H    -1.928000000    -8.318000000    -3.478000000
O    -0.345000000    -4.267000000    -6.045000000
H    -0.521000000    -3.600000000    -5.381000000
H    -1.187000000    -4.400000000    -6.480000000
