17
-92.03210
C     2.673000000    -0.463000000     0.869000000
H     3.667000000    -0.841000000     0.641000000
C     1.703000000    -0.333000000    -0.056000000
H     1.987000000    -0.856000000    -0.965000000
C     0.437000000     0.058000000     0.238000000
C    -0.599000000     0.177000000    -0.801000000
H    -0.414000000    -0.527000000    -1.615000000
H    -1.537000000     0.044000000    -0.259000000
H    -0.649000000     1.186000000    -1.215000000
C     0.179000000     0.725000000     1.448000000
H    -0.811000000     1.159000000     1.566000000
C     1.180000000     0.800000000     2.376000000
H     1.015000000     1.308000000     3.323000000
C     2.424000000     0.142000000     2.147000000
C     3.436000000     0.078000000     3.299000000
O     3.393000000     0.923000000     4.217000000
O     4.286000000    -0.769000000     3.209000000
