17
-95.41724
C    -0.783000000    -1.362000000    -2.247000000
H    -0.740000000    -1.437000000    -3.331000000
C     0.133000000    -0.542000000    -1.534000000
H     0.904000000     0.013000000    -2.062000000
C     0.010000000    -0.425000000    -0.152000000
C     0.816000000     0.532000000     0.628000000
H     0.996000000     0.221000000     1.659000000
H     1.786000000     0.769000000     0.187000000
H     0.328000000     1.506000000     0.705000000
C    -1.036000000    -1.060000000     0.500000000
H    -1.171000000    -0.973000000     1.575000000
C    -1.960000000    -1.781000000    -0.198000000
H    -2.900000000    -2.110000000     0.237000000
C    -1.795000000    -1.985000000    -1.545000000
C    -2.772000000    -2.842000000    -2.341000000
O    -3.781000000    -3.333000000    -1.871000000
O    -2.664000000    -2.911000000    -3.551000000
