17
-89.22771
C    -0.573000000    -1.338000000    -2.242000000
H    -0.291000000    -1.268000000    -3.289000000
C     0.237000000    -0.614000000    -1.417000000
H     1.015000000    -0.023000000    -1.894000000
C    -0.060000000    -0.520000000    -0.103000000
C     0.801000000     0.330000000     0.856000000
H     1.840000000     0.179000000     0.557000000
H     0.464000000     1.352000000     0.669000000
H     0.549000000     0.108000000     1.895000000
C    -1.200000000    -1.137000000     0.436000000
H    -1.352000000    -0.996000000     1.503000000
C    -1.969000000    -1.926000000    -0.372000000
H    -2.874000000    -2.428000000    -0.040000000
C    -1.759000000    -1.931000000    -1.771000000
C    -2.788000000    -2.607000000    -2.637000000
O    -3.859000000    -2.846000000    -2.161000000
O    -2.647000000    -2.529000000    -3.846000000
