17
-89.26722
C     0.095000000    -0.868000000    -2.466000000
H     0.332000000    -0.787000000    -3.523000000
C     0.581000000     0.035000000    -1.589000000
H     1.305000000     0.798000000    -1.862000000
C     0.276000000    -0.080000000    -0.235000000
C     0.952000000     0.955000000     0.660000000
H     1.187000000     0.401000000     1.571000000
H     1.854000000     1.419000000     0.255000000
H     0.210000000     1.694000000     0.968000000
C    -0.627000000    -1.021000000     0.224000000
H    -0.924000000    -0.938000000     1.267000000
C    -1.176000000    -1.950000000    -0.689000000
H    -1.835000000    -2.746000000    -0.353000000
C    -0.819000000    -1.886000000    -2.028000000
C    -1.287000000    -2.942000000    -3.050000000
O    -1.778000000    -3.957000000    -2.712000000
O    -1.016000000    -2.836000000    -4.220000000
