17
-87.67499
C    -0.522000000    -1.555000000    -1.890000000
H    -0.279000000    -1.823000000    -2.915000000
C     0.381000000    -0.727000000    -1.201000000
H     1.253000000    -0.275000000    -1.666000000
C     0.213000000    -0.374000000     0.057000000
C     1.106000000     0.612000000     0.714000000
H     2.075000000     0.122000000     0.828000000
H     1.299000000     1.437000000     0.025000000
H     0.643000000     1.040000000     1.605000000
C    -0.922000000    -0.838000000     0.723000000
H    -1.092000000    -0.627000000     1.776000000
C    -1.879000000    -1.570000000     0.040000000
H    -2.745000000    -1.919000000     0.598000000
C    -1.652000000    -2.044000000    -1.263000000
C    -2.676000000    -2.900000000    -1.917000000
O    -3.574000000    -3.372000000    -1.329000000
O    -2.483000000    -3.260000000    -3.091000000
