17
-98.44036
C    -0.967000000    -1.367000000    -2.015000000
H    -0.872000000    -1.836000000    -2.992000000
C     0.112000000    -0.818000000    -1.320000000
H     1.026000000    -0.584000000    -1.858000000
C    -0.051000000    -0.364000000     0.001000000
C     1.008000000     0.403000000     0.663000000
H     1.474000000     1.114000000    -0.022000000
H     0.653000000     0.909000000     1.563000000
H     1.832000000    -0.230000000     0.998000000
C    -1.270000000    -0.507000000     0.641000000
H    -1.442000000    -0.197000000     1.668000000
C    -2.380000000    -1.039000000    -0.120000000
H    -3.278000000    -1.259000000     0.453000000
C    -2.221000000    -1.398000000    -1.459000000
C    -3.397000000    -2.021000000    -2.166000000
O    -4.527000000    -1.764000000    -1.827000000
O    -3.195000000    -2.867000000    -3.060000000
