17
-86.84449
C    -0.203000000    -2.067000000    -1.650000000
H     0.001000000    -2.616000000    -2.566000000
C     0.651000000    -0.957000000    -1.280000000
H     1.375000000    -0.591000000    -2.003000000
C     0.420000000    -0.271000000    -0.131000000
C     1.405000000     0.741000000     0.445000000
H     1.799000000     0.319000000     1.372000000
H     2.096000000     1.104000000    -0.318000000
H     0.793000000     1.584000000     0.773000000
C    -0.832000000    -0.447000000     0.476000000
H    -1.272000000     0.193000000     1.237000000
C    -1.604000000    -1.534000000     0.156000000
H    -2.543000000    -1.688000000     0.681000000
C    -1.387000000    -2.384000000    -0.965000000
C    -2.302000000    -3.526000000    -1.349000000
O    -3.250000000    -3.816000000    -0.696000000
O    -2.137000000    -4.088000000    -2.411000000
