17
-96.40029
C     1.010000000    -1.543000000    -1.781000000
H     1.096000000    -1.707000000    -2.852000000
C     0.042000000    -0.634000000    -1.295000000
H    -0.571000000    -0.025000000    -1.954000000
C    -0.170000000    -0.388000000     0.041000000
C    -1.129000000     0.671000000     0.525000000
H    -0.690000000     1.659000000     0.680000000
H    -1.926000000     0.838000000    -0.202000000
H    -1.608000000     0.349000000     1.452000000
C     0.610000000    -1.084000000     0.953000000
H     0.544000000    -0.864000000     2.015000000
C     1.601000000    -1.924000000     0.540000000
H     2.253000000    -2.385000000     1.278000000
C     1.740000000    -2.242000000    -0.837000000
C     2.806000000    -3.217000000    -1.247000000
O     3.623000000    -3.495000000    -0.432000000
O     2.837000000    -3.592000000    -2.387000000
