17
-92.27420
C    -2.371000000    -2.775000000    -2.673000000
H    -2.368000000    -3.138000000    -3.697000000
C    -1.348000000    -1.949000000    -2.183000000
H    -0.446000000    -1.816000000    -2.776000000
C    -1.269000000    -1.545000000    -0.878000000
C    -0.139000000    -0.708000000    -0.338000000
H     0.605000000    -0.645000000    -1.135000000
H    -0.324000000     0.335000000    -0.072000000
H     0.313000000    -1.161000000     0.548000000
C    -2.445000000    -1.757000000    -0.067000000
H    -2.410000000    -1.424000000     0.967000000
C    -3.628000000    -2.295000000    -0.659000000
H    -4.542000000    -2.432000000    -0.086000000
C    -3.562000000    -2.901000000    -1.950000000
C    -4.708000000    -3.748000000    -2.455000000
O    -5.534000000    -4.171000000    -1.631000000
O    -4.850000000    -4.152000000    -3.595000000
