17
-98.60911
C    -1.002000000    -1.428000000    -2.226000000
H    -0.928000000    -1.781000000    -3.252000000
C     0.139000000    -0.887000000    -1.581000000
H     1.093000000    -0.804000000    -2.095000000
C     0.038000000    -0.408000000    -0.296000000
C     1.238000000     0.309000000     0.290000000
H     0.989000000     1.285000000     0.711000000
H     1.780000000    -0.287000000     1.027000000
H     1.867000000     0.405000000    -0.597000000
C    -1.112000000    -0.469000000     0.417000000
H    -1.188000000    -0.024000000     1.405000000
C    -2.210000000    -1.076000000    -0.189000000
H    -3.172000000    -1.132000000     0.315000000
C    -2.194000000    -1.575000000    -1.487000000
C    -3.455000000    -2.129000000    -2.087000000
O    -4.402000000    -2.415000000    -1.329000000
O    -3.453000000    -2.509000000    -3.247000000
