17
-81.10006
C    -1.222000000    -2.376000000    -1.823000000
H    -1.200000000    -3.017000000    -2.701000000
C    -0.123000000    -1.617000000    -1.421000000
H     0.750000000    -1.724000000    -2.059000000
C    -0.205000000    -0.764000000    -0.314000000
C     0.978000000     0.050000000     0.112000000
H     1.699000000    -0.691000000     0.465000000
H     1.407000000     0.691000000    -0.661000000
H     0.741000000     0.673000000     0.977000000
C    -1.412000000    -0.724000000     0.370000000
H    -1.567000000    -0.149000000     1.279000000
C    -2.457000000    -1.485000000    -0.068000000
H    -3.363000000    -1.514000000     0.533000000
C    -2.395000000    -2.324000000    -1.116000000
C    -3.690000000    -2.959000000    -1.616000000
O    -4.717000000    -2.785000000    -1.053000000
O    -3.751000000    -3.521000000    -2.633000000
