17
-85.05646
C    -1.145000000    -1.856000000    -1.845000000
H    -0.958000000    -2.360000000    -2.790000000
C    -0.065000000    -1.055000000    -1.325000000
H     0.844000000    -0.995000000    -1.918000000
C    -0.199000000    -0.483000000    -0.112000000
C     0.805000000     0.514000000     0.384000000
H     0.875000000     0.436000000     1.471000000
H     1.796000000     0.480000000    -0.072000000
H     0.316000000     1.478000000     0.230000000
C    -1.401000000    -0.654000000     0.597000000
H    -1.657000000    -0.180000000     1.541000000
C    -2.475000000    -1.349000000     0.066000000
H    -3.423000000    -1.435000000     0.591000000
C    -2.291000000    -2.145000000    -1.081000000
C    -3.412000000    -2.893000000    -1.697000000
O    -4.532000000    -2.685000000    -1.339000000
O    -3.278000000    -3.411000000    -2.789000000
