17
-98.27600
C     1.045000000    -1.720000000    -1.399000000
H     1.121000000    -2.221000000    -2.361000000
C     0.049000000    -0.782000000    -1.196000000
H    -0.599000000    -0.579000000    -2.045000000
C    -0.102000000    -0.127000000     0.036000000
C    -1.250000000     0.881000000     0.313000000
H    -1.012000000     1.463000000     1.205000000
H    -1.486000000     1.443000000    -0.593000000
H    -2.126000000     0.246000000     0.457000000
C     0.790000000    -0.432000000     1.110000000
H     0.701000000     0.055000000     2.078000000
C     1.764000000    -1.418000000     0.932000000
H     2.480000000    -1.678000000     1.707000000
C     1.968000000    -1.984000000    -0.355000000
C     3.144000000    -2.885000000    -0.589000000
O     3.774000000    -3.293000000     0.376000000
O     3.298000000    -3.289000000    -1.701000000
