17
-90.87194
C    -0.891000000    -0.917000000    -2.290000000
H    -0.778000000    -0.917000000    -3.371000000
C     0.060000000    -0.249000000    -1.490000000
H     0.831000000     0.328000000    -1.994000000
C    -0.065000000    -0.239000000    -0.123000000
C     1.068000000     0.368000000     0.756000000
H     0.897000000     0.180000000     1.818000000
H     2.012000000    -0.142000000     0.556000000
H     1.209000000     1.440000000     0.606000000
C    -1.175000000    -0.784000000     0.484000000
H    -1.299000000    -0.737000000     1.563000000
C    -2.130000000    -1.543000000    -0.297000000
H    -2.979000000    -2.041000000     0.165000000
C    -2.034000000    -1.527000000    -1.674000000
C    -3.060000000    -2.172000000    -2.526000000
O    -3.996000000    -2.792000000    -2.120000000
O    -3.086000000    -1.860000000    -3.701000000
