17
-89.99993
C    -1.185000000    -1.962000000    -1.574000000
H    -0.851000000    -2.577000000    -2.406000000
C    -0.276000000    -1.101000000    -0.916000000
H     0.701000000    -1.098000000    -1.392000000
C    -0.588000000    -0.303000000     0.117000000
C     0.427000000     0.564000000     0.767000000
H     0.664000000     0.334000000     1.808000000
H     1.379000000     0.403000000     0.257000000
H     0.118000000     1.611000000     0.751000000
C    -1.929000000    -0.334000000     0.596000000
H    -2.234000000     0.067000000     1.559000000
C    -2.872000000    -1.167000000    -0.024000000
H    -3.887000000    -1.252000000     0.356000000
C    -2.512000000    -2.036000000    -1.060000000
C    -3.517000000    -2.990000000    -1.696000000
O    -4.587000000    -3.181000000    -1.260000000
O    -3.196000000    -3.589000000    -2.708000000
