17
-93.61914
C    -1.367000000    -1.349000000    -2.175000000
H    -1.280000000    -1.657000000    -3.214000000
C    -0.274000000    -0.790000000    -1.567000000
H     0.709000000    -0.893000000    -2.021000000
C    -0.325000000    -0.238000000    -0.264000000
C     0.974000000     0.152000000     0.460000000
H     1.786000000    -0.571000000     0.357000000
H     1.258000000     1.155000000     0.133000000
H     0.787000000     0.098000000     1.534000000
C    -1.585000000    -0.186000000     0.390000000
H    -1.621000000     0.096000000     1.439000000
C    -2.701000000    -0.770000000    -0.229000000
H    -3.600000000    -0.686000000     0.377000000
C    -2.548000000    -1.434000000    -1.440000000
C    -3.827000000    -2.056000000    -2.022000000
O    -4.916000000    -2.050000000    -1.387000000
O    -3.795000000    -2.447000000    -3.139000000
