17
-95.34515
C    -1.172000000    -0.770000000    -2.207000000
H    -1.119000000    -1.134000000    -3.229000000
C    -0.059000000    -0.565000000    -1.426000000
H     0.946000000    -0.690000000    -1.821000000
C    -0.192000000    -0.056000000    -0.127000000
C     1.000000000     0.334000000     0.661000000
H     1.307000000     1.342000000     0.373000000
H     0.691000000     0.225000000     1.703000000
H     1.879000000    -0.293000000     0.499000000
C    -1.493000000     0.029000000     0.421000000
H    -1.578000000     0.343000000     1.458000000
C    -2.598000000    -0.338000000    -0.293000000
H    -3.604000000    -0.281000000     0.114000000
C    -2.383000000    -0.702000000    -1.672000000
C    -3.677000000    -0.929000000    -2.461000000
O    -4.804000000    -0.837000000    -1.952000000
O    -3.539000000    -1.507000000    -3.531000000
