17
-98.92118
C     1.505000000    -2.349000000    -1.230000000
H     1.576000000    -3.082000000    -2.030000000
C     0.518000000    -1.377000000    -1.226000000
H    -0.237000000    -1.413000000    -2.008000000
C     0.380000000    -0.478000000    -0.181000000
C    -0.844000000     0.445000000    -0.019000000
H    -1.524000000    -0.025000000     0.694000000
H    -0.520000000     1.410000000     0.375000000
H    -1.333000000     0.539000000    -0.991000000
C     1.340000000    -0.512000000     0.852000000
H     1.272000000     0.216000000     1.656000000
C     2.386000000    -1.479000000     0.797000000
H     3.167000000    -1.465000000     1.553000000
C     2.490000000    -2.411000000    -0.204000000
C     3.686000000    -3.361000000    -0.268000000
O     4.663000000    -3.070000000     0.362000000
O     3.652000000    -4.183000000    -1.148000000
