17
-94.14108
C    -1.762000000    -1.665000000    -1.363000000
H    -1.839000000    -2.269000000    -2.263000000
C    -0.516000000    -1.333000000    -0.987000000
H     0.282000000    -1.606000000    -1.673000000
C    -0.263000000    -0.560000000     0.131000000
C     1.120000000    -0.087000000     0.391000000
H     1.676000000    -0.838000000     0.958000000
H     1.588000000     0.079000000    -0.581000000
H     1.096000000     0.923000000     0.804000000
C    -1.352000000    -0.117000000     0.881000000
H    -1.190000000     0.516000000     1.749000000
C    -2.599000000    -0.523000000     0.564000000
H    -3.434000000    -0.069000000     1.093000000
C    -2.898000000    -1.317000000    -0.563000000
C    -4.355000000    -1.702000000    -0.945000000
O    -5.252000000    -1.310000000    -0.254000000
O    -4.582000000    -2.276000000    -2.015000000
