17
-95.82873
C    -2.690000000    -1.663000000    -0.654000000
H    -2.972000000    -2.705000000    -0.787000000
C    -1.289000000    -1.422000000    -0.305000000
H    -0.607000000    -2.267000000    -0.340000000
C    -0.892000000    -0.123000000     0.046000000
C     0.584000000     0.207000000     0.303000000
H     0.778000000     1.131000000     0.851000000
H     1.157000000    -0.571000000     0.812000000
H     1.140000000     0.356000000    -0.625000000
C    -1.899000000     0.925000000     0.046000000
H    -1.561000000     1.957000000     0.105000000
C    -3.213000000     0.744000000    -0.319000000
H    -3.969000000     1.524000000    -0.351000000
C    -3.596000000    -0.595000000    -0.649000000
C    -5.108000000    -0.885000000    -0.942000000
O    -5.860000000    -0.006000000    -0.545000000
O    -5.530000000    -2.013000000    -1.260000000
