17
-95.85366
C    -2.072000000    -0.821000000    -2.192000000
H    -2.115000000    -1.036000000    -3.257000000
C    -0.891000000    -0.641000000    -1.540000000
H    -0.011000000    -0.793000000    -2.159000000
C    -0.862000000    -0.218000000    -0.212000000
C     0.487000000    -0.018000000     0.474000000
H     0.803000000    -1.007000000     0.812000000
H     1.263000000     0.374000000    -0.187000000
H     0.385000000     0.679000000     1.308000000
C    -2.076000000    -0.098000000     0.530000000
H    -2.048000000     0.279000000     1.549000000
C    -3.308000000    -0.314000000    -0.148000000
H    -4.280000000    -0.166000000     0.315000000
C    -3.291000000    -0.638000000    -1.544000000
C    -4.565000000    -0.573000000    -2.303000000
O    -5.593000000    -0.327000000    -1.756000000
O    -4.457000000    -0.772000000    -3.484000000
