17
-98.77042
C     1.445000000    -2.079000000     0.162000000
H     1.504000000    -3.131000000     0.429000000
C     0.238000000    -1.407000000     0.088000000
H    -0.653000000    -2.026000000     0.165000000
C     0.092000000    -0.006000000     0.026000000
C    -1.274000000     0.673000000     0.107000000
H    -1.579000000     1.084000000    -0.857000000
H    -1.984000000    -0.016000000     0.568000000
H    -1.251000000     1.568000000     0.733000000
C     1.225000000     0.736000000    -0.187000000
H     1.198000000     1.814000000    -0.326000000
C     2.458000000     0.105000000    -0.107000000
H     3.333000000     0.743000000    -0.203000000
C     2.580000000    -1.284000000     0.059000000
C     3.902000000    -1.955000000     0.407000000
O     4.939000000    -1.313000000     0.294000000
O     3.941000000    -3.140000000     0.722000000
