17
-92.26176
C    -1.850000000    -2.042000000    -0.262000000
H    -2.025000000    -3.106000000    -0.393000000
C    -0.562000000    -1.587000000     0.142000000
H     0.258000000    -2.301000000     0.173000000
C    -0.422000000    -0.243000000     0.304000000
C     0.938000000     0.308000000     0.637000000
H     1.082000000     0.517000000     1.699000000
H     1.709000000    -0.392000000     0.306000000
H     1.071000000     1.248000000     0.097000000
C    -1.529000000     0.615000000     0.210000000
H    -1.341000000     1.658000000     0.453000000
C    -2.752000000     0.133000000    -0.105000000
H    -3.581000000     0.833000000    -0.182000000
C    -2.928000000    -1.172000000    -0.461000000
C    -4.289000000    -1.774000000    -0.714000000
O    -5.271000000    -1.147000000    -0.407000000
O    -4.287000000    -2.627000000    -1.578000000
