17
-97.47765
C     1.578000000    -2.113000000    -0.443000000
H     1.707000000    -3.192000000    -0.494000000
C     0.394000000    -1.601000000     0.079000000
H    -0.357000000    -2.306000000     0.428000000
C     0.214000000    -0.208000000     0.162000000
C    -1.113000000     0.461000000     0.636000000
H    -1.312000000     1.453000000     0.223000000
H    -1.959000000    -0.165000000     0.345000000
H    -1.075000000     0.449000000     1.727000000
C     1.215000000     0.639000000    -0.205000000
H     1.211000000     1.723000000    -0.132000000
C     2.450000000     0.159000000    -0.630000000
H     3.305000000     0.791000000    -0.859000000
C     2.647000000    -1.215000000    -0.762000000
C     4.003000000    -1.807000000    -1.051000000
O     4.862000000    -1.139000000    -1.592000000
O     4.159000000    -3.027000000    -0.945000000
