17
-99.13571
C    -2.001000000    -1.929000000    -0.757000000
H    -2.051000000    -2.976000000    -1.043000000
C    -0.757000000    -1.456000000    -0.321000000
H     0.053000000    -2.165000000    -0.173000000
C    -0.581000000    -0.120000000     0.015000000
C     0.856000000     0.391000000     0.293000000
H     1.123000000     0.228000000     1.340000000
H     1.591000000    -0.045000000    -0.387000000
H     0.897000000     1.471000000     0.140000000
C    -1.705000000     0.714000000     0.030000000
H    -1.674000000     1.769000000     0.288000000
C    -2.952000000     0.252000000    -0.294000000
H    -3.786000000     0.949000000    -0.302000000
C    -3.158000000    -1.104000000    -0.609000000
C    -4.571000000    -1.631000000    -0.901000000
O    -5.523000000    -0.869000000    -0.874000000
O    -4.580000000    -2.750000000    -1.367000000
