17
-96.01811
C    -2.370000000    -1.090000000    -0.115000000
H    -2.914000000    -2.030000000    -0.084000000
C    -0.951000000    -1.051000000    -0.046000000
H    -0.437000000    -1.999000000     0.091000000
C    -0.293000000     0.172000000    -0.120000000
C     1.212000000     0.138000000    -0.039000000
H     1.498000000     0.990000000     0.582000000
H     1.461000000    -0.779000000     0.498000000
H     1.863000000     0.180000000    -0.915000000
C    -1.056000000     1.356000000    -0.103000000
H    -0.624000000     2.344000000    -0.239000000
C    -2.427000000     1.318000000    -0.192000000
H    -2.994000000     2.228000000    -0.369000000
C    -3.099000000     0.067000000    -0.211000000
C    -4.654000000     0.130000000    -0.185000000
O    -5.291000000     1.143000000    -0.005000000
O    -5.242000000    -0.902000000    -0.492000000
