17
-99.43137
C    -2.491000000    -2.004000000    -1.147000000
H    -2.766000000    -2.936000000    -1.634000000
C    -1.140000000    -1.755000000    -0.823000000
H    -0.519000000    -2.646000000    -0.849000000
C    -0.756000000    -0.521000000    -0.262000000
C     0.600000000    -0.341000000     0.353000000
H     0.831000000    -1.306000000     0.810000000
H     1.340000000    -0.339000000    -0.449000000
H     0.712000000     0.560000000     0.959000000
C    -1.720000000     0.470000000    -0.133000000
H    -1.413000000     1.373000000     0.389000000
C    -3.087000000     0.179000000    -0.339000000
H    -3.840000000     0.897000000    -0.022000000
C    -3.499000000    -1.037000000    -0.910000000
C    -4.927000000    -1.282000000    -1.287000000
O    -5.823000000    -0.497000000    -0.913000000
O    -5.154000000    -2.215000000    -2.079000000
