17
-99.29323
C    -2.477000000    -1.280000000    -0.672000000
H    -2.855000000    -2.233000000    -1.033000000
C    -1.145000000    -1.180000000    -0.269000000
H    -0.535000000    -2.077000000    -0.341000000
C    -0.552000000     0.036000000     0.088000000
C     0.942000000     0.147000000     0.426000000
H     1.582000000     0.230000000    -0.455000000
H     1.187000000     1.025000000     1.027000000
H     1.180000000    -0.706000000     1.066000000
C    -1.395000000     1.151000000     0.187000000
H    -0.973000000     2.031000000     0.665000000
C    -2.750000000     1.093000000    -0.311000000
H    -3.393000000     1.969000000    -0.344000000
C    -3.274000000    -0.115000000    -0.769000000
C    -4.656000000    -0.192000000    -1.351000000
O    -5.182000000     0.831000000    -1.791000000
O    -5.209000000    -1.291000000    -1.599000000
