17
-91.39495
C    -1.641000000    -1.659000000    -0.561000000
H    -1.991000000    -2.654000000    -0.821000000
C    -0.296000000    -1.457000000    -0.440000000
H     0.409000000    -2.283000000    -0.486000000
C     0.059000000    -0.185000000     0.067000000
C     1.468000000     0.064000000     0.425000000
H     1.562000000     1.045000000     0.896000000
H     1.846000000    -0.746000000     1.051000000
H     2.066000000     0.212000000    -0.477000000
C    -0.834000000     0.796000000     0.293000000
H    -0.433000000     1.722000000     0.698000000
C    -2.157000000     0.655000000    -0.063000000
H    -2.880000000     1.465000000    -0.011000000
C    -2.596000000    -0.594000000    -0.515000000
C    -4.036000000    -0.883000000    -0.951000000
O    -4.723000000     0.021000000    -1.363000000
O    -4.518000000    -2.019000000    -1.065000000
