17
-95.90416
C    -1.627000000    -2.300000000    -0.645000000
H    -1.637000000    -3.357000000    -0.899000000
C    -0.433000000    -1.641000000    -0.346000000
H     0.518000000    -2.097000000    -0.610000000
C    -0.451000000    -0.312000000    -0.020000000
C     0.883000000     0.358000000     0.291000000
H     0.749000000     1.240000000     0.921000000
H     1.640000000    -0.307000000     0.711000000
H     1.345000000     0.749000000    -0.617000000
C    -1.622000000     0.485000000     0.119000000
H    -1.609000000     1.530000000     0.416000000
C    -2.863000000    -0.151000000    -0.135000000
H    -3.843000000     0.308000000    -0.025000000
C    -2.836000000    -1.531000000    -0.487000000
C    -4.212000000    -2.128000000    -0.725000000
O    -5.222000000    -1.494000000    -0.469000000
O    -4.343000000    -3.259000000    -1.164000000
