17
-95.92940
C    -2.639000000    -1.457000000    -0.004000000
H    -2.962000000    -2.491000000    -0.096000000
C    -1.259000000    -1.256000000     0.075000000
H    -0.697000000    -2.184000000     0.004000000
C    -0.706000000     0.021000000     0.072000000
C     0.817000000     0.145000000     0.066000000
H     1.175000000     0.961000000     0.698000000
H     1.187000000    -0.841000000     0.353000000
H     1.069000000     0.416000000    -0.962000000
C    -1.637000000     1.080000000     0.123000000
H    -1.306000000     2.113000000     0.191000000
C    -3.024000000     0.948000000     0.154000000
H    -3.736000000     1.760000000     0.272000000
C    -3.493000000    -0.365000000     0.101000000
C    -4.993000000    -0.609000000     0.060000000
O    -5.781000000     0.289000000    -0.154000000
O    -5.387000000    -1.764000000     0.072000000
