17
-95.47129
C    -1.718000000    -1.686000000    -1.853000000
H    -1.776000000    -2.303000000    -2.746000000
C    -0.431000000    -1.311000000    -1.347000000
H     0.402000000    -1.869000000    -1.766000000
C    -0.407000000    -0.439000000    -0.234000000
C     0.783000000     0.130000000     0.392000000
H     1.276000000    -0.581000000     1.059000000
H     1.513000000     0.516000000    -0.322000000
H     0.517000000     0.971000000     1.036000000
C    -1.641000000    -0.022000000     0.331000000
H    -1.674000000     0.642000000     1.191000000
C    -2.823000000    -0.355000000    -0.282000000
H    -3.669000000     0.088000000     0.237000000
C    -2.931000000    -1.275000000    -1.289000000
C    -4.269000000    -1.522000000    -1.965000000
O    -5.240000000    -1.109000000    -1.378000000
O    -4.321000000    -2.115000000    -3.031000000
