17
-94.00090
C    -2.673000000    -1.758000000    -0.892000000
H    -3.018000000    -2.776000000    -1.053000000
C    -1.321000000    -1.478000000    -0.590000000
H    -0.517000000    -2.201000000    -0.708000000
C    -0.983000000    -0.180000000    -0.132000000
C     0.438000000     0.053000000     0.143000000
H     0.937000000    -0.880000000     0.416000000
H     0.891000000     0.432000000    -0.776000000
H     0.551000000     0.722000000     0.998000000
C    -1.898000000     0.866000000    -0.200000000
H    -1.489000000     1.856000000    -0.019000000
C    -3.140000000     0.601000000    -0.785000000
H    -3.911000000     1.366000000    -0.752000000
C    -3.502000000    -0.702000000    -1.179000000
C    -4.880000000    -0.971000000    -1.836000000
O    -5.488000000    -0.003000000    -2.184000000
O    -5.348000000    -2.113000000    -1.945000000
