17
-101.51830
C    -2.237000000    -1.695000000    -0.639000000
H    -2.346000000    -2.636000000    -1.172000000
C    -0.887000000    -1.313000000    -0.333000000
H    -0.048000000    -1.990000000    -0.466000000
C    -0.728000000    -0.036000000     0.185000000
C     0.680000000     0.378000000     0.578000000
H     1.342000000     0.478000000    -0.285000000
H     0.631000000     1.272000000     1.203000000
H     1.204000000    -0.382000000     1.161000000
C    -1.779000000     0.853000000     0.313000000
H    -1.612000000     1.862000000     0.682000000
C    -3.125000000     0.417000000     0.100000000
H    -4.025000000     0.985000000     0.322000000
C    -3.318000000    -0.856000000    -0.428000000
C    -4.738000000    -1.362000000    -0.738000000
O    -5.685000000    -0.584000000    -0.667000000
O    -4.907000000    -2.522000000    -1.162000000
