17
-95.43193
C    -2.097000000    -1.295000000    -1.221000000
H    -2.381000000    -2.190000000    -1.769000000
C    -0.764000000    -1.169000000    -0.775000000
H    -0.005000000    -1.926000000    -0.951000000
C    -0.426000000    -0.011000000    -0.076000000
C     1.030000000     0.184000000     0.418000000
H     1.711000000     0.239000000    -0.434000000
H     1.171000000     0.977000000     1.156000000
H     1.361000000    -0.753000000     0.871000000
C    -1.323000000     1.078000000    -0.013000000
H    -0.958000000     2.045000000     0.322000000
C    -2.666000000     0.893000000    -0.446000000
H    -3.406000000     1.665000000    -0.251000000
C    -3.037000000    -0.287000000    -1.009000000
C    -4.441000000    -0.478000000    -1.482000000
O    -5.357000000     0.114000000    -0.980000000
O    -4.534000000    -1.044000000    -2.550000000
