17
-94.60282
C    -1.745000000    -2.428000000    -0.040000000
H    -1.627000000    -3.507000000    -0.110000000
C    -0.563000000    -1.648000000    -0.218000000
H     0.373000000    -2.170000000    -0.401000000
C    -0.626000000    -0.294000000    -0.022000000
C     0.695000000     0.508000000    -0.012000000
H     1.018000000     0.820000000    -1.007000000
H     0.475000000     1.379000000     0.609000000
H     1.536000000    -0.033000000     0.425000000
C    -1.887000000     0.350000000     0.119000000
H    -1.916000000     1.433000000     0.030000000
C    -3.035000000    -0.413000000     0.290000000
H    -3.991000000     0.105000000     0.299000000
C    -2.935000000    -1.806000000     0.264000000
C    -4.187000000    -2.622000000     0.331000000
O    -5.374000000    -2.215000000     0.162000000
O    -4.126000000    -3.822000000     0.607000000
