17
-89.55320
C    -1.579000000    -1.849000000    -0.832000000
H    -1.691000000    -2.862000000    -1.211000000
C    -0.310000000    -1.426000000    -0.381000000
H     0.437000000    -2.215000000    -0.342000000
C    -0.163000000    -0.105000000     0.108000000
C     1.173000000     0.317000000     0.561000000
H     1.123000000     1.336000000     0.948000000
H     1.746000000    -0.415000000     1.135000000
H     1.806000000     0.474000000    -0.315000000
C    -1.224000000     0.780000000    -0.095000000
H    -1.138000000     1.838000000     0.135000000
C    -2.421000000     0.319000000    -0.511000000
H    -3.290000000     0.969000000    -0.573000000
C    -2.664000000    -0.953000000    -0.876000000
C    -3.981000000    -1.420000000    -1.471000000
O    -4.814000000    -0.557000000    -1.638000000
O    -4.142000000    -2.489000000    -1.986000000
