17
-99.13821
C     2.891000000    -2.821000000     0.997000000
H     3.016000000    -3.898000000     1.082000000
C     1.635000000    -2.253000000     0.770000000
H     0.776000000    -2.873000000     0.527000000
C     1.423000000    -0.862000000     0.726000000
C     0.143000000    -0.255000000     0.262000000
H    -0.497000000    -1.010000000    -0.200000000
H    -0.282000000     0.133000000     1.190000000
H     0.246000000     0.563000000    -0.453000000
C     2.571000000    -0.097000000     0.924000000
H     2.395000000     0.973000000     0.856000000
C     3.839000000    -0.589000000     1.170000000
H     4.725000000     0.019000000     1.332000000
C     4.022000000    -1.978000000     1.272000000
C     5.445000000    -2.593000000     1.399000000
O     6.403000000    -1.894000000     1.055000000
O     5.583000000    -3.804000000     1.599000000
