17
-91.15261
C    -1.605000000    -2.111000000    -0.591000000
H    -1.614000000    -3.120000000    -0.996000000
C    -0.404000000    -1.453000000    -0.430000000
H     0.513000000    -2.024000000    -0.551000000
C    -0.328000000    -0.172000000     0.096000000
C     1.058000000     0.407000000     0.160000000
H     1.779000000    -0.218000000     0.691000000
H     1.433000000     0.648000000    -0.837000000
H     0.939000000     1.321000000     0.745000000
C    -1.494000000     0.511000000     0.387000000
H    -1.422000000     1.529000000     0.762000000
C    -2.685000000    -0.200000000     0.324000000
H    -3.583000000     0.293000000     0.688000000
C    -2.815000000    -1.494000000    -0.153000000
C    -4.115000000    -2.288000000    -0.152000000
O    -5.111000000    -1.791000000     0.290000000
O    -4.239000000    -3.164000000    -1.033000000
