17
-95.49717
C    -1.651000000    -1.949000000    -0.674000000
H    -1.660000000    -2.915000000    -1.173000000
C    -0.383000000    -1.446000000    -0.492000000
H     0.443000000    -2.114000000    -0.721000000
C    -0.203000000    -0.194000000     0.010000000
C     1.209000000     0.345000000     0.305000000
H     1.271000000     0.608000000     1.363000000
H     1.975000000    -0.424000000     0.193000000
H     1.417000000     1.257000000    -0.259000000
C    -1.274000000     0.644000000     0.174000000
H    -1.125000000     1.691000000     0.427000000
C    -2.610000000     0.088000000     0.077000000
H    -3.466000000     0.622000000     0.484000000
C    -2.787000000    -1.216000000    -0.426000000
C    -4.161000000    -1.876000000    -0.336000000
O    -5.160000000    -1.265000000    -0.066000000
O    -4.189000000    -3.100000000    -0.601000000
