17
-94.48699
C    -1.054000000    -2.900000000    -0.601000000
H    -0.784000000    -3.876000000    -0.997000000
C    -0.053000000    -2.006000000    -0.222000000
H     0.976000000    -2.355000000    -0.222000000
C    -0.356000000    -0.756000000     0.201000000
C     0.714000000     0.203000000     0.750000000
H     1.760000000     0.012000000     0.501000000
H     0.627000000     1.235000000     0.403000000
H     0.519000000     0.272000000     1.822000000
C    -1.653000000    -0.262000000    -0.013000000
H    -1.937000000     0.759000000     0.229000000
C    -2.664000000    -1.113000000    -0.488000000
H    -3.656000000    -0.677000000    -0.569000000
C    -2.377000000    -2.459000000    -0.840000000
C    -3.518000000    -3.241000000    -1.338000000
O    -4.604000000    -2.733000000    -1.285000000
O    -3.251000000    -4.378000000    -1.681000000
