17
-93.70611
C    -1.435000000    -1.970000000    -1.281000000
H    -1.383000000    -3.001000000    -1.622000000
C    -0.312000000    -1.454000000    -0.652000000
H     0.567000000    -2.085000000    -0.552000000
C    -0.327000000    -0.233000000    -0.023000000
C     0.902000000     0.443000000     0.465000000
H     0.750000000     1.231000000     1.205000000
H     1.428000000    -0.366000000     0.976000000
H     1.562000000     0.797000000    -0.329000000
C    -1.486000000     0.519000000    -0.070000000
H    -1.510000000     1.538000000     0.308000000
C    -2.571000000     0.045000000    -0.788000000
H    -3.501000000     0.574000000    -0.982000000
C    -2.605000000    -1.283000000    -1.333000000
C    -3.930000000    -1.801000000    -1.877000000
O    -4.936000000    -1.090000000    -1.923000000
O    -4.050000000    -2.976000000    -2.121000000
