17
-91.90526
C     1.936000000    -1.460000000     0.890000000
H     2.546000000    -2.351000000     0.762000000
C     1.052000000    -1.003000000    -0.093000000
H     1.038000000    -1.444000000    -1.087000000
C     0.062000000    -0.082000000     0.206000000
C    -0.951000000     0.274000000    -0.833000000
H    -0.306000000     0.929000000    -1.422000000
H    -1.161000000    -0.569000000    -1.494000000
H    -1.840000000     0.784000000    -0.455000000
C     0.081000000     0.572000000     1.447000000
H    -0.696000000     1.301000000     1.659000000
C     1.053000000     0.240000000     2.410000000
H     1.072000000     0.796000000     3.344000000
C     2.012000000    -0.753000000     2.108000000
C     3.114000000    -1.063000000     3.114000000
O     3.150000000    -0.542000000     4.189000000
O     3.951000000    -1.853000000     2.819000000
