17
-95.03188
C     1.431000000    -2.631000000     0.019000000
H     1.431000000    -3.683000000    -0.258000000
C     0.272000000    -1.846000000    -0.022000000
H    -0.692000000    -2.346000000    -0.062000000
C     0.410000000    -0.487000000     0.094000000
C    -0.757000000     0.420000000     0.333000000
H    -1.644000000    -0.157000000     0.604000000
H    -0.578000000     1.227000000     1.047000000
H    -0.972000000     0.928000000    -0.609000000
C     1.641000000     0.060000000     0.314000000
H     1.776000000     1.106000000     0.574000000
C     2.801000000    -0.744000000     0.354000000
H     3.753000000    -0.222000000     0.400000000
C     2.733000000    -2.117000000     0.090000000
C     3.946000000    -3.036000000    -0.100000000
O     5.008000000    -2.680000000     0.347000000
O     3.793000000    -3.993000000    -0.812000000
