17
-96.41821
C    -1.091000000    -2.297000000    -1.382000000
H    -1.075000000    -3.235000000    -1.930000000
C    -0.010000000    -1.752000000    -0.744000000
H     0.899000000    -2.346000000    -0.789000000
C    -0.017000000    -0.553000000    -0.065000000
C     1.279000000     0.040000000     0.422000000
H     1.505000000     0.910000000    -0.199000000
H     1.127000000     0.395000000     1.443000000
H     2.126000000    -0.648000000     0.467000000
C    -1.192000000     0.168000000     0.006000000
H    -1.213000000     1.095000000     0.572000000
C    -2.321000000    -0.337000000    -0.699000000
H    -3.265000000     0.197000000    -0.634000000
C    -2.269000000    -1.593000000    -1.336000000
C    -3.599000000    -2.154000000    -1.760000000
O    -4.626000000    -1.628000000    -1.368000000
O    -3.647000000    -3.152000000    -2.423000000
