17
-84.29729
C    -0.743000000    -2.169000000    -1.351000000
H    -0.485000000    -2.961000000    -2.050000000
C     0.295000000    -1.343000000    -0.813000000
H     1.342000000    -1.599000000    -0.952000000
C    -0.020000000    -0.216000000     0.066000000
C     1.051000000     0.576000000     0.736000000
H     1.954000000     0.034000000     1.026000000
H     1.249000000     1.368000000     0.011000000
H     0.654000000     1.014000000     1.653000000
C    -1.369000000     0.086000000     0.264000000
H    -1.697000000     0.773000000     1.039000000
C    -2.354000000    -0.715000000    -0.251000000
H    -3.391000000    -0.469000000    -0.040000000
C    -2.056000000    -1.878000000    -1.011000000
C    -3.268000000    -2.652000000    -1.534000000
O    -4.422000000    -2.525000000    -1.122000000
O    -3.149000000    -3.082000000    -2.623000000
