17
-91.18152
C    -0.654000000    -1.847000000    -1.337000000
H    -0.458000000    -2.743000000    -1.920000000
C     0.390000000    -1.024000000    -0.886000000
H     1.402000000    -1.343000000    -1.122000000
C     0.073000000     0.016000000    -0.049000000
C     1.238000000     0.822000000     0.547000000
H     2.035000000     0.151000000     0.874000000
H     1.802000000     1.448000000    -0.148000000
H     0.851000000     1.339000000     1.427000000
C    -1.301000000     0.310000000     0.362000000
H    -1.405000000     1.112000000     1.089000000
C    -2.243000000    -0.386000000    -0.283000000
H    -3.304000000    -0.169000000    -0.182000000
C    -1.952000000    -1.511000000    -1.033000000
C    -3.045000000    -2.406000000    -1.550000000
O    -4.217000000    -2.249000000    -1.214000000
O    -2.772000000    -3.309000000    -2.273000000
