17
-96.94382
C    -1.341000000    -2.366000000    -1.234000000
H    -1.308000000    -3.299000000    -1.791000000
C    -0.157000000    -1.701000000    -0.875000000
H     0.829000000    -2.155000000    -0.925000000
C    -0.175000000    -0.455000000    -0.240000000
C     1.160000000     0.224000000     0.304000000
H     1.511000000     0.972000000    -0.410000000
H     1.034000000     0.728000000     1.265000000
H     1.898000000    -0.537000000     0.567000000
C    -1.417000000     0.061000000     0.153000000
H    -1.397000000     1.076000000     0.540000000
C    -2.628000000    -0.561000000    -0.222000000
H    -3.572000000    -0.068000000    -0.005000000
C    -2.558000000    -1.760000000    -0.955000000
C    -3.889000000    -2.376000000    -1.495000000
O    -4.992000000    -1.882000000    -1.331000000
O    -3.687000000    -3.342000000    -2.286000000
