17
-99.07810
C    -1.822000000    -2.193000000    -1.379000000
H    -1.843000000    -3.036000000    -2.065000000
C    -0.671000000    -1.598000000    -0.877000000
H     0.313000000    -2.019000000    -1.065000000
C    -0.845000000    -0.529000000     0.007000000
C     0.450000000     0.100000000     0.478000000
H     0.766000000     0.801000000    -0.297000000
H     0.349000000     0.630000000     1.428000000
H     1.316000000    -0.565000000     0.454000000
C    -2.009000000     0.028000000     0.309000000
H    -2.111000000     0.957000000     0.864000000
C    -3.205000000    -0.520000000    -0.212000000
H    -4.200000000    -0.186000000     0.068000000
C    -3.073000000    -1.710000000    -0.996000000
C    -4.340000000    -2.499000000    -1.391000000
O    -5.394000000    -1.925000000    -1.115000000
O    -4.247000000    -3.570000000    -1.998000000
