17
-89.14500
C    -1.015000000    -2.182000000    -1.297000000
H    -0.739000000    -3.022000000    -1.929000000
C    -0.129000000    -1.365000000    -0.686000000
H     0.925000000    -1.371000000    -0.954000000
C    -0.575000000    -0.420000000     0.126000000
C     0.526000000     0.388000000     0.781000000
H     0.203000000     0.651000000     1.791000000
H     1.427000000    -0.229000000     0.804000000
H     0.695000000     1.338000000     0.271000000
C    -1.940000000    -0.185000000     0.257000000
H    -2.403000000     0.609000000     0.837000000
C    -2.836000000    -1.024000000    -0.328000000
H    -3.911000000    -0.886000000    -0.241000000
C    -2.386000000    -2.050000000    -1.170000000
C    -3.332000000    -2.964000000    -1.915000000
O    -4.507000000    -2.974000000    -1.664000000
O    -2.874000000    -3.698000000    -2.759000000
