17
-93.76333
C    -0.601000000    -1.716000000    -1.710000000
H    -0.447000000    -2.420000000    -2.523000000
C     0.460000000    -1.109000000    -0.992000000
H     1.516000000    -1.263000000    -1.197000000
C     0.258000000    -0.183000000     0.022000000
C     1.427000000     0.296000000     0.848000000
H     1.414000000     1.385000000     0.771000000
H     1.329000000     0.166000000     1.928000000
H     2.419000000    -0.017000000     0.515000000
C    -1.041000000     0.173000000     0.345000000
H    -1.269000000     0.922000000     1.099000000
C    -2.102000000    -0.357000000    -0.391000000
H    -3.103000000    -0.048000000    -0.099000000
C    -1.905000000    -1.291000000    -1.409000000
C    -3.076000000    -1.880000000    -2.063000000
O    -4.060000000    -1.174000000    -2.228000000
O    -3.092000000    -2.964000000    -2.640000000
