17
-88.42993
C    -0.879000000    -2.335000000    -1.131000000
H    -0.458000000    -3.190000000    -1.653000000
C    -0.061000000    -1.388000000    -0.571000000
H     1.007000000    -1.543000000    -0.696000000
C    -0.656000000    -0.257000000     0.008000000
C     0.143000000     0.833000000     0.710000000
H     1.098000000     0.474000000     1.099000000
H     0.337000000     1.650000000     0.011000000
H    -0.439000000     1.241000000     1.539000000
C    -2.042000000    -0.259000000     0.105000000
H    -2.446000000     0.615000000     0.609000000
C    -2.843000000    -1.150000000    -0.465000000
H    -3.903000000    -0.915000000    -0.521000000
C    -2.269000000    -2.285000000    -1.120000000
C    -3.139000000    -3.156000000    -1.887000000
O    -4.214000000    -2.769000000    -2.312000000
O    -2.685000000    -4.175000000    -2.409000000
