17
-95.67677
C    -0.839000000    -1.914000000    -0.997000000
H    -0.669000000    -2.846000000    -1.531000000
C     0.233000000    -1.133000000    -0.580000000
H     1.244000000    -1.380000000    -0.894000000
C    -0.034000000    -0.085000000     0.293000000
C     1.136000000     0.673000000     0.813000000
H     1.202000000     0.636000000     1.902000000
H     2.100000000     0.355000000     0.410000000
H     1.058000000     1.696000000     0.437000000
C    -1.286000000     0.250000000     0.717000000
H    -1.274000000     1.010000000     1.494000000
C    -2.370000000    -0.535000000     0.252000000
H    -3.383000000    -0.252000000     0.528000000
C    -2.120000000    -1.605000000    -0.639000000
C    -3.255000000    -2.511000000    -1.036000000
O    -4.389000000    -2.294000000    -0.699000000
O    -3.048000000    -3.412000000    -1.867000000
