17
-91.93960
C    -0.645000000    -1.973000000    -1.530000000
H    -0.470000000    -2.635000000    -2.374000000
C     0.396000000    -1.292000000    -0.908000000
H     1.460000000    -1.489000000    -1.011000000
C     0.134000000    -0.276000000    -0.016000000
C     1.358000000     0.336000000     0.699000000
H     2.280000000     0.247000000     0.119000000
H     1.163000000     1.408000000     0.770000000
H     1.314000000    -0.039000000     1.723000000
C    -1.142000000     0.209000000     0.154000000
H    -1.326000000     1.018000000     0.857000000
C    -2.224000000    -0.427000000    -0.484000000
H    -3.160000000     0.109000000    -0.346000000
C    -1.976000000    -1.505000000    -1.343000000
C    -3.133000000    -2.104000000    -2.104000000
O    -4.214000000    -1.480000000    -2.202000000
O    -2.962000000    -3.021000000    -2.924000000
