17
-98.66689
C    -0.266000000    -2.022000000    -1.679000000
H     0.185000000    -2.784000000    -2.309000000
C     0.522000000    -1.335000000    -0.768000000
H     1.599000000    -1.457000000    -0.854000000
C    -0.060000000    -0.349000000     0.081000000
C     0.782000000     0.386000000     1.082000000
H     1.518000000     1.036000000     0.604000000
H     0.216000000     1.003000000     1.783000000
H     1.375000000    -0.365000000     1.609000000
C    -1.406000000    -0.008000000    -0.087000000
H    -1.807000000     0.878000000     0.400000000
C    -2.177000000    -0.767000000    -1.032000000
H    -3.247000000    -0.584000000    -1.089000000
C    -1.650000000    -1.796000000    -1.772000000
C    -2.567000000    -2.495000000    -2.813000000
O    -3.602000000    -1.959000000    -3.173000000
O    -2.198000000    -3.496000000    -3.392000000
