17
-88.60696
C    -1.064000000    -2.233000000    -2.314000000
H    -0.861000000    -2.833000000    -3.197000000
C    -0.003000000    -1.613000000    -1.598000000
H     1.016000000    -1.453000000    -1.942000000
C    -0.385000000    -0.988000000    -0.416000000
C     0.649000000    -0.224000000     0.373000000
H     0.734000000    -0.383000000     1.450000000
H     1.618000000    -0.583000000     0.021000000
H     0.643000000     0.830000000     0.090000000
C    -1.684000000    -0.957000000     0.099000000
H    -1.918000000    -0.391000000     0.997000000
C    -2.677000000    -1.493000000    -0.671000000
H    -3.724000000    -1.345000000    -0.423000000
C    -2.363000000    -2.267000000    -1.793000000
C    -3.418000000    -3.150000000    -2.551000000
O    -4.507000000    -3.238000000    -2.110000000
O    -3.220000000    -3.702000000    -3.641000000
