17
-88.91001
C     0.860000000    -2.476000000    -0.248000000
H     0.442000000    -3.453000000    -0.475000000
C    -0.083000000    -1.457000000    -0.032000000
H    -1.136000000    -1.718000000    -0.104000000
C     0.293000000    -0.186000000     0.351000000
C    -0.747000000     0.824000000     0.741000000
H    -0.350000000     1.775000000     0.381000000
H    -1.746000000     0.634000000     0.344000000
H    -0.843000000     0.774000000     1.827000000
C     1.627000000     0.155000000     0.308000000
H     1.812000000     1.186000000     0.600000000
C     2.635000000    -0.771000000    -0.056000000
H     3.660000000    -0.419000000    -0.144000000
C     2.215000000    -2.149000000    -0.308000000
C     3.199000000    -3.210000000    -0.628000000
O     4.356000000    -2.905000000    -0.750000000
O     2.933000000    -4.362000000    -0.922000000
