17
-96.03587
C    -0.587000000    -2.144000000    -2.287000000
H    -0.156000000    -2.664000000    -3.138000000
C     0.302000000    -1.430000000    -1.490000000
H     1.339000000    -1.465000000    -1.814000000
C    -0.183000000    -0.875000000    -0.237000000
C     0.810000000    -0.082000000     0.641000000
H     0.392000000     0.219000000     1.604000000
H     1.751000000    -0.590000000     0.867000000
H     0.995000000     0.853000000     0.108000000
C    -1.469000000    -0.994000000     0.070000000
H    -1.786000000    -0.625000000     1.042000000
C    -2.356000000    -1.737000000    -0.773000000
H    -3.395000000    -1.743000000    -0.455000000
C    -1.896000000    -2.359000000    -1.905000000
C    -2.820000000    -3.130000000    -2.808000000
O    -3.966000000    -3.189000000    -2.433000000
O    -2.417000000    -3.681000000    -3.838000000
