17
-88.88430
C    -1.712000000    -2.265000000    -0.399000000
H    -1.806000000    -3.163000000    -1.005000000
C    -0.537000000    -1.582000000    -0.170000000
H     0.408000000    -2.062000000    -0.413000000
C    -0.583000000    -0.314000000     0.366000000
C     0.715000000     0.417000000     0.557000000
H     1.179000000     0.754000000    -0.372000000
H     0.490000000     1.367000000     1.048000000
H     1.439000000    -0.237000000     1.047000000
C    -1.796000000     0.412000000     0.408000000
H    -1.879000000     1.473000000     0.627000000
C    -2.956000000    -0.262000000     0.244000000
H    -3.877000000     0.316000000     0.263000000
C    -2.927000000    -1.572000000    -0.227000000
C    -4.181000000    -2.246000000    -0.759000000
O    -5.134000000    -1.595000000    -0.918000000
O    -4.136000000    -3.464000000    -0.889000000
