17
-89.85649
C    -2.020000000    -2.601000000    -1.724000000
H    -2.022000000    -3.344000000    -2.517000000
C    -0.908000000    -1.843000000    -1.429000000
H    -0.011000000    -2.037000000    -2.010000000
C    -1.002000000    -0.821000000    -0.526000000
C     0.230000000     0.049000000    -0.256000000
H     0.341000000     0.694000000    -1.129000000
H     0.131000000     0.674000000     0.635000000
H     1.103000000    -0.579000000    -0.068000000
C    -2.213000000    -0.492000000     0.051000000
H    -2.233000000     0.351000000     0.737000000
C    -3.279000000    -1.354000000    -0.124000000
H    -4.148000000    -1.378000000     0.529000000
C    -3.190000000    -2.431000000    -1.027000000
C    -4.291000000    -3.492000000    -1.022000000
O    -5.062000000    -3.487000000    -0.130000000
O    -4.442000000    -4.201000000    -1.962000000
