17
-93.07620
C    -2.135000000    -2.549000000    -0.971000000
H    -2.156000000    -3.433000000    -1.604000000
C    -1.020000000    -1.679000000    -1.030000000
H    -0.189000000    -1.886000000    -1.700000000
C    -1.031000000    -0.508000000    -0.269000000
C     0.210000000     0.377000000    -0.330000000
H    -0.020000000     1.138000000    -1.079000000
H     0.342000000     0.907000000     0.616000000
H     1.111000000    -0.165000000    -0.623000000
C    -2.037000000    -0.229000000     0.598000000
H    -2.082000000     0.743000000     1.082000000
C    -3.170000000    -1.124000000     0.638000000
H    -4.028000000    -0.826000000     1.236000000
C    -3.212000000    -2.277000000    -0.151000000
C    -4.370000000    -3.281000000    -0.149000000
O    -5.340000000    -3.130000000     0.615000000
O    -4.607000000    -3.935000000    -1.169000000
