17
-93.60343
C    -1.948000000    -2.481000000    -1.253000000
H    -1.971000000    -3.279000000    -1.990000000
C    -0.895000000    -1.586000000    -1.268000000
H    -0.108000000    -1.725000000    -2.004000000
C    -0.823000000    -0.560000000    -0.319000000
C     0.370000000     0.312000000    -0.325000000
H     0.189000000     1.038000000    -1.121000000
H     0.598000000     0.854000000     0.595000000
H     1.213000000    -0.338000000    -0.565000000
C    -1.925000000    -0.351000000     0.452000000
H    -1.932000000     0.555000000     1.052000000
C    -3.011000000    -1.182000000     0.506000000
H    -3.880000000    -0.940000000     1.113000000
C    -2.999000000    -2.358000000    -0.286000000
C    -4.123000000    -3.347000000    -0.328000000
O    -5.012000000    -3.311000000     0.484000000
O    -4.258000000    -3.986000000    -1.351000000
