17
-93.96368
C     1.451000000    -2.643000000    -0.147000000
H     1.257000000    -3.700000000    -0.308000000
C     0.399000000    -1.807000000     0.250000000
H    -0.620000000    -2.179000000     0.316000000
C     0.627000000    -0.485000000     0.358000000
C    -0.540000000     0.496000000     0.591000000
H    -1.457000000    -0.080000000     0.733000000
H    -0.352000000     0.979000000     1.552000000
H    -0.599000000     1.262000000    -0.185000000
C     1.916000000     0.069000000     0.299000000
H     2.058000000     1.143000000     0.383000000
C     2.963000000    -0.860000000     0.091000000
H     3.947000000    -0.424000000    -0.066000000
C     2.763000000    -2.221000000    -0.267000000
C     3.889000000    -3.188000000    -0.525000000
O     5.022000000    -2.665000000    -0.717000000
O     3.667000000    -4.324000000    -0.860000000
