17
-97.38150
C    -1.950000000    -1.111000000    -1.356000000
H    -2.568000000    -1.195000000    -2.246000000
C    -0.863000000    -0.193000000    -1.380000000
H    -0.613000000     0.360000000    -2.282000000
C    -0.136000000    -0.025000000    -0.201000000
C     1.123000000     0.727000000    -0.141000000
H     1.412000000     1.090000000     0.847000000
H     1.956000000     0.129000000    -0.517000000
H     0.964000000     1.570000000    -0.816000000
C    -0.424000000    -0.782000000     0.923000000
H     0.202000000    -0.852000000     1.809000000
C    -1.442000000    -1.723000000     0.960000000
H    -1.638000000    -2.376000000     1.807000000
C    -2.253000000    -1.826000000    -0.156000000
C    -3.391000000    -2.795000000    -0.110000000
O    -3.524000000    -3.464000000     0.932000000
O    -4.021000000    -3.120000000    -1.134000000
