17
-91.10223
C    -1.940000000    -0.889000000    -1.469000000
H    -2.365000000    -0.922000000    -2.469000000
C    -0.993000000     0.074000000    -1.093000000
H    -0.649000000     0.823000000    -1.801000000
C    -0.473000000     0.114000000     0.157000000
C     0.527000000     1.173000000     0.481000000
H     0.142000000     2.163000000     0.730000000
H     1.117000000     0.904000000     1.360000000
H     1.282000000     1.354000000    -0.287000000
C    -0.793000000    -0.875000000     1.076000000
H    -0.353000000    -0.929000000     2.068000000
C    -1.710000000    -1.898000000     0.679000000
H    -2.080000000    -2.606000000     1.416000000
C    -2.253000000    -1.907000000    -0.589000000
C    -3.366000000    -2.863000000    -1.001000000
O    -3.844000000    -3.558000000    -0.152000000
O    -3.711000000    -3.126000000    -2.142000000
