17
-94.33585
C    -1.278000000    -0.485000000    -2.005000000
H    -1.596000000    -0.329000000    -3.032000000
C    -0.477000000     0.492000000    -1.377000000
H    -0.049000000     1.279000000    -1.993000000
C    -0.008000000     0.212000000    -0.128000000
C     0.884000000     1.248000000     0.540000000
H     1.762000000     1.463000000    -0.072000000
H     0.377000000     2.181000000     0.794000000
H     1.313000000     0.841000000     1.458000000
C    -0.316000000    -0.966000000     0.500000000
H     0.075000000    -1.129000000     1.502000000
C    -1.149000000    -1.895000000    -0.130000000
H    -1.599000000    -2.740000000     0.386000000
C    -1.676000000    -1.645000000    -1.393000000
C    -2.713000000    -2.497000000    -2.087000000
O    -3.403000000    -3.271000000    -1.476000000
O    -2.936000000    -2.389000000    -3.297000000
