17
-88.41603
C    -1.459000000    -0.662000000    -1.938000000
H    -1.944000000    -0.481000000    -2.894000000
C    -0.500000000     0.214000000    -1.419000000
H    -0.219000000     1.095000000    -1.990000000
C     0.037000000    -0.032000000    -0.134000000
C     1.021000000     0.914000000     0.525000000
H     0.607000000     1.924000000     0.472000000
H     1.167000000     0.699000000     1.586000000
H     1.960000000     0.789000000    -0.018000000
C    -0.452000000    -1.062000000     0.624000000
H    -0.078000000    -1.101000000     1.644000000
C    -1.283000000    -1.995000000     0.026000000
H    -1.467000000    -2.865000000     0.652000000
C    -1.746000000    -1.826000000    -1.241000000
C    -2.592000000    -2.955000000    -1.835000000
O    -3.195000000    -3.647000000    -1.121000000
O    -2.825000000    -2.949000000    -3.024000000
