17
-87.66598
C    -2.338000000    -0.746000000    -1.602000000
H    -3.037000000    -0.423000000    -2.370000000
C    -1.379000000     0.082000000    -1.070000000
H    -1.275000000     1.109000000    -1.411000000
C    -0.550000000    -0.464000000    -0.078000000
C     0.536000000     0.416000000     0.405000000
H     1.413000000    -0.070000000     0.837000000
H     0.889000000     1.114000000    -0.357000000
H     0.189000000     1.062000000     1.214000000
C    -0.666000000    -1.774000000     0.437000000
H    -0.066000000    -2.061000000     1.297000000
C    -1.889000000    -2.453000000     0.095000000
H    -2.122000000    -3.419000000     0.537000000
C    -2.626000000    -1.992000000    -0.992000000
C    -3.751000000    -2.878000000    -1.546000000
O    -4.264000000    -3.765000000    -0.894000000
O    -4.240000000    -2.745000000    -2.636000000
