17
-93.17462
C    -1.915000000    -0.761000000    -1.467000000
H    -2.443000000    -0.630000000    -2.409000000
C    -0.783000000     0.066000000    -1.177000000
H    -0.498000000     0.940000000    -1.758000000
C    -0.142000000    -0.078000000     0.008000000
C     0.944000000     0.918000000     0.319000000
H     1.530000000     0.646000000     1.199000000
H     1.618000000     1.020000000    -0.534000000
H     0.480000000     1.875000000     0.562000000
C    -0.449000000    -1.048000000     0.955000000
H     0.008000000    -1.114000000     1.939000000
C    -1.542000000    -1.881000000     0.639000000
H    -1.887000000    -2.583000000     1.394000000
C    -2.253000000    -1.784000000    -0.563000000
C    -3.502000000    -2.596000000    -0.798000000
O    -4.147000000    -3.142000000     0.086000000
O    -3.867000000    -2.785000000    -1.919000000
