17
-100.10916
C    -2.264000000    -0.480000000    -1.879000000
H    -2.805000000    -0.186000000    -2.775000000
C    -1.094000000     0.215000000    -1.573000000
H    -0.694000000     0.881000000    -2.334000000
C    -0.504000000     0.001000000    -0.296000000
C     0.729000000     0.818000000     0.024000000
H     0.505000000     1.887000000     0.019000000
H     1.242000000     0.720000000     0.983000000
H     1.450000000     0.629000000    -0.773000000
C    -1.188000000    -0.867000000     0.633000000
H    -0.741000000    -0.980000000     1.618000000
C    -2.363000000    -1.544000000     0.254000000
H    -2.866000000    -2.161000000     0.995000000
C    -2.893000000    -1.395000000    -1.039000000
C    -4.154000000    -2.158000000    -1.439000000
O    -4.774000000    -2.870000000    -0.660000000
O    -4.590000000    -1.995000000    -2.616000000
