17
-81.80423
C    -0.696000000    -2.702000000    -1.805000000
H    -1.214000000    -2.941000000    -2.730000000
C    -0.547000000    -1.349000000    -1.546000000
H    -0.790000000    -0.674000000    -2.362000000
C    -0.131000000    -0.889000000    -0.267000000
C    -0.111000000     0.616000000    -0.008000000
H    -0.740000000     0.896000000     0.840000000
H     0.884000000     0.970000000     0.268000000
H    -0.437000000     1.180000000    -0.883000000
C     0.262000000    -1.800000000     0.702000000
H     0.532000000    -1.482000000     1.706000000
C     0.283000000    -3.160000000     0.406000000
H     0.687000000    -3.833000000     1.159000000
C    -0.165000000    -3.583000000    -0.893000000
C    -0.034000000    -5.030000000    -1.303000000
O     0.103000000    -5.845000000    -0.504000000
O    -0.457000000    -5.420000000    -2.405000000
