17
-90.27870
C    -0.641000000    -2.072000000    -0.758000000
H    -1.295000000    -2.598000000    -1.449000000
C    -0.531000000    -0.678000000    -0.894000000
H    -1.097000000    -0.112000000    -1.630000000
C     0.119000000     0.053000000     0.071000000
C     0.136000000     1.532000000     0.052000000
H     0.592000000     1.942000000     0.955000000
H     0.721000000     1.851000000    -0.813000000
H    -0.881000000     1.922000000    -0.030000000
C     0.877000000    -0.648000000     1.031000000
H     1.468000000    -0.131000000     1.783000000
C     0.874000000    -2.064000000     1.136000000
H     1.360000000    -2.503000000     2.004000000
C     0.085000000    -2.771000000     0.257000000
C     0.078000000    -4.241000000     0.255000000
O     0.703000000    -4.908000000     0.983000000
O    -0.781000000    -4.747000000    -0.458000000
