17
-91.53032
C    -0.329000000    -2.257000000    -1.612000000
H    -0.587000000    -2.552000000    -2.626000000
C    -0.334000000    -0.927000000    -1.328000000
H    -0.774000000    -0.195000000    -1.999000000
C     0.139000000    -0.413000000    -0.156000000
C     0.274000000     1.103000000     0.043000000
H    -0.198000000     1.365000000     0.992000000
H     1.312000000     1.436000000     0.097000000
H    -0.228000000     1.749000000    -0.681000000
C     0.586000000    -1.290000000     0.837000000
H     0.866000000    -0.931000000     1.824000000
C     0.596000000    -2.661000000     0.576000000
H     0.834000000    -3.288000000     1.432000000
C     0.133000000    -3.154000000    -0.657000000
C     0.043000000    -4.571000000    -0.958000000
O     0.555000000    -5.379000000    -0.271000000
O    -0.652000000    -4.905000000    -1.929000000
