17
-89.82266
C    -0.080000000    -2.245000000    -1.168000000
H    -0.328000000    -2.744000000    -2.102000000
C    -0.185000000    -0.869000000    -1.118000000
H    -0.382000000    -0.416000000    -2.086000000
C     0.190000000    -0.228000000     0.056000000
C     0.242000000     1.327000000     0.066000000
H     0.184000000     1.734000000    -0.946000000
H    -0.571000000     1.753000000     0.657000000
H     1.188000000     1.774000000     0.380000000
C     0.418000000    -0.927000000     1.241000000
H     0.659000000    -0.487000000     2.206000000
C     0.503000000    -2.356000000     1.151000000
H     0.711000000    -2.929000000     2.051000000
C     0.180000000    -3.018000000    -0.038000000
C     0.379000000    -4.528000000    -0.152000000
O     0.717000000    -5.246000000     0.778000000
O    -0.130000000    -5.084000000    -1.089000000
