17
-92.95484
C    -0.204000000    -2.361000000    -2.097000000
H    -0.689000000    -2.660000000    -3.024000000
C    -0.532000000    -1.058000000    -1.529000000
H    -1.298000000    -0.436000000    -1.984000000
C     0.054000000    -0.670000000    -0.353000000
C    -0.251000000     0.582000000     0.272000000
H    -0.289000000     1.419000000    -0.429000000
H    -1.284000000     0.488000000     0.611000000
H     0.459000000     0.902000000     1.037000000
C     1.051000000    -1.537000000     0.187000000
H     1.660000000    -1.270000000     1.047000000
C     1.457000000    -2.710000000    -0.416000000
H     2.245000000    -3.357000000    -0.039000000
C     0.769000000    -3.139000000    -1.553000000
C     1.105000000    -4.496000000    -2.044000000
O     1.913000000    -5.214000000    -1.484000000
O     0.503000000    -4.926000000    -2.999000000
