17
-96.12714
C     0.390000000    -2.333000000    -1.212000000
H    -0.015000000    -2.723000000    -2.142000000
C     0.121000000    -1.032000000    -0.917000000
H    -0.480000000    -0.432000000    -1.596000000
C     0.429000000    -0.533000000     0.290000000
C     0.066000000     0.885000000     0.539000000
H     0.756000000     1.420000000     1.194000000
H     0.041000000     1.520000000    -0.348000000
H    -0.959000000     0.920000000     0.915000000
C     1.212000000    -1.263000000     1.170000000
H     1.546000000    -0.872000000     2.128000000
C     1.565000000    -2.600000000     0.813000000
H     2.106000000    -3.284000000     1.460000000
C     1.135000000    -3.161000000    -0.367000000
C     1.360000000    -4.613000000    -0.740000000
O     1.540000000    -5.418000000     0.177000000
O     1.200000000    -5.051000000    -1.890000000
