17
-89.94296
C    -0.498000000    -2.484000000    -1.371000000
H    -1.157000000    -3.085000000    -1.992000000
C    -0.664000000    -1.106000000    -1.201000000
H    -1.487000000    -0.649000000    -1.746000000
C     0.212000000    -0.398000000    -0.394000000
C     0.070000000     1.111000000    -0.244000000
H    -0.569000000     1.585000000    -0.992000000
H    -0.354000000     1.427000000     0.711000000
H     1.073000000     1.541000000    -0.292000000
C     1.160000000    -1.095000000     0.377000000
H     1.625000000    -0.452000000     1.120000000
C     1.273000000    -2.437000000     0.308000000
H     1.901000000    -2.948000000     1.033000000
C     0.510000000    -3.124000000    -0.676000000
C     0.635000000    -4.605000000    -0.850000000
O     1.497000000    -5.206000000    -0.201000000
O    -0.064000000    -5.321000000    -1.497000000
