17
-96.73387
C    -0.457000000    -1.836000000    -1.750000000
H    -0.935000000    -2.274000000    -2.623000000
C    -0.727000000    -0.529000000    -1.363000000
H    -1.414000000     0.099000000    -1.925000000
C    -0.052000000     0.009000000    -0.288000000
C    -0.329000000     1.461000000     0.083000000
H     0.575000000     1.860000000     0.548000000
H    -0.454000000     2.047000000    -0.830000000
H    -1.209000000     1.594000000     0.715000000
C     0.757000000    -0.830000000     0.500000000
H     1.233000000    -0.319000000     1.333000000
C     1.093000000    -2.115000000     0.099000000
H     1.759000000    -2.759000000     0.666000000
C     0.477000000    -2.658000000    -1.077000000
C     0.643000000    -4.057000000    -1.619000000
O     1.205000000    -4.868000000    -0.938000000
O    -0.001000000    -4.440000000    -2.603000000
