17
-92.04009
C    -0.283000000    -1.603000000    -1.563000000
H    -0.793000000    -2.034000000    -2.421000000
C    -0.525000000    -0.322000000    -1.146000000
H    -1.326000000     0.297000000    -1.541000000
C     0.271000000     0.138000000    -0.074000000
C    -0.068000000     1.487000000     0.417000000
H     0.797000000     1.777000000     1.016000000
H    -0.089000000     2.263000000    -0.351000000
H    -0.982000000     1.438000000     1.014000000
C     1.278000000    -0.650000000     0.523000000
H     1.898000000    -0.231000000     1.312000000
C     1.514000000    -1.887000000     0.034000000
H     2.350000000    -2.481000000     0.394000000
C     0.773000000    -2.422000000    -1.012000000
C     0.947000000    -3.810000000    -1.535000000
O     1.753000000    -4.570000000    -1.021000000
O     0.259000000    -4.250000000    -2.405000000
