17
-92.43757
C    -0.173000000    -2.233000000    -1.470000000
H    -0.723000000    -2.846000000    -2.178000000
C    -0.522000000    -0.875000000    -1.237000000
H    -1.201000000    -0.357000000    -1.909000000
C     0.157000000    -0.152000000    -0.235000000
C    -0.002000000     1.361000000     0.013000000
H     0.895000000     1.854000000     0.393000000
H    -0.377000000     1.911000000    -0.853000000
H    -0.825000000     1.597000000     0.691000000
C     1.170000000    -0.715000000     0.507000000
H     1.678000000    -0.076000000     1.224000000
C     1.457000000    -2.071000000     0.291000000
H     2.267000000    -2.483000000     0.887000000
C     0.877000000    -2.807000000    -0.733000000
C     1.204000000    -4.298000000    -0.931000000
O     2.133000000    -4.811000000    -0.429000000
O     0.570000000    -4.862000000    -1.813000000
