17
-97.39749
C     0.789000000    -2.635000000    -1.280000000
H     0.449000000    -3.155000000    -2.173000000
C     0.365000000    -1.341000000    -1.247000000
H    -0.328000000    -1.077000000    -2.042000000
C     0.751000000    -0.496000000    -0.195000000
C     0.345000000     0.918000000    -0.198000000
H     1.056000000     1.482000000    -0.806000000
H    -0.583000000     1.051000000    -0.758000000
H     0.237000000     1.515000000     0.710000000
C     1.591000000    -0.992000000     0.800000000
H     2.041000000    -0.265000000     1.471000000
C     1.932000000    -2.373000000     0.805000000
H     2.548000000    -2.811000000     1.586000000
C     1.582000000    -3.195000000    -0.272000000
C     2.067000000    -4.622000000    -0.443000000
O     2.780000000    -5.032000000     0.475000000
O     1.528000000    -5.362000000    -1.265000000
