17
-100.82919
C    -1.012000000    -2.658000000    -0.326000000
H    -1.729000000    -3.339000000    -0.778000000
C    -1.015000000    -1.287000000    -0.470000000
H    -1.771000000    -0.822000000    -1.097000000
C    -0.118000000    -0.484000000     0.172000000
C    -0.120000000     0.997000000    -0.154000000
H     0.509000000     1.191000000    -1.026000000
H    -1.118000000     1.400000000    -0.337000000
H     0.264000000     1.470000000     0.752000000
C     0.891000000    -1.034000000     0.985000000
H     1.651000000    -0.446000000     1.493000000
C     0.928000000    -2.420000000     1.094000000
H     1.666000000    -2.918000000     1.718000000
C    -0.052000000    -3.219000000     0.466000000
C     0.136000000    -4.745000000     0.492000000
O     0.901000000    -5.205000000     1.303000000
O    -0.377000000    -5.439000000    -0.392000000
