17
-98.51722
C     0.613000000    -3.002000000    -0.599000000
H     0.205000000    -3.901000000    -1.053000000
C    -0.280000000    -1.941000000    -0.246000000
H    -1.333000000    -1.982000000    -0.511000000
C     0.269000000    -0.738000000     0.267000000
C    -0.670000000     0.361000000     0.491000000
H    -0.264000000     1.272000000     0.045000000
H    -1.679000000     0.308000000     0.079000000
H    -0.722000000     0.457000000     1.577000000
C     1.630000000    -0.659000000     0.553000000
H     1.947000000     0.313000000     0.921000000
C     2.452000000    -1.745000000     0.319000000
H     3.515000000    -1.695000000     0.541000000
C     1.970000000    -2.844000000    -0.329000000
C     2.917000000    -4.004000000    -0.578000000
O     4.096000000    -3.973000000    -0.247000000
O     2.470000000    -4.994000000    -1.143000000
