17
-91.67483
C    -0.582000000    -2.329000000    -0.951000000
H    -0.999000000    -2.863000000    -1.801000000
C    -0.589000000    -0.947000000    -0.883000000
H    -0.849000000    -0.385000000    -1.776000000
C    -0.113000000    -0.271000000     0.275000000
C    -0.360000000     1.236000000     0.286000000
H    -0.022000000     1.655000000    -0.664000000
H    -1.395000000     1.551000000     0.434000000
H     0.200000000     1.555000000     1.168000000
C     0.339000000    -1.012000000     1.314000000
H     0.736000000    -0.480000000     2.175000000
C     0.419000000    -2.385000000     1.229000000
H     0.723000000    -2.953000000     2.104000000
C    -0.053000000    -3.118000000     0.072000000
C    -0.072000000    -4.587000000     0.021000000
O    -0.211000000    -5.223000000     1.054000000
O     0.138000000    -5.110000000    -1.022000000
