17
-103.51986
C    -0.475000000    -2.330000000    -0.902000000
H    -0.789000000    -2.777000000    -1.842000000
C    -0.529000000    -0.925000000    -0.819000000
H    -0.892000000    -0.331000000    -1.654000000
C    -0.087000000    -0.302000000     0.360000000
C    -0.184000000     1.201000000     0.504000000
H    -1.165000000     1.494000000     0.884000000
H     0.596000000     1.646000000     1.125000000
H    -0.185000000     1.725000000    -0.454000000
C     0.476000000    -1.075000000     1.415000000
H     0.915000000    -0.610000000     2.294000000
C     0.404000000    -2.452000000     1.321000000
H     0.694000000    -3.062000000     2.173000000
C    -0.054000000    -3.122000000     0.162000000
C     0.073000000    -4.620000000    -0.076000000
O     0.535000000    -5.330000000     0.794000000
O    -0.161000000    -5.057000000    -1.233000000
