17
-93.55866
C     0.833000000    -3.548000000    -0.483000000
H     0.103000000    -4.281000000    -0.816000000
C     0.564000000    -2.198000000    -0.736000000
H    -0.368000000    -1.888000000    -1.203000000
C     1.539000000    -1.286000000    -0.300000000
C     1.232000000     0.245000000    -0.332000000
H     0.733000000     0.459000000    -1.279000000
H     0.638000000     0.592000000     0.516000000
H     2.243000000     0.655000000    -0.277000000
C     2.736000000    -1.688000000     0.252000000
H     3.493000000    -0.978000000     0.575000000
C     3.030000000    -3.022000000     0.402000000
H     3.967000000    -3.332000000     0.859000000
C     2.088000000    -3.987000000     0.026000000
C     2.309000000    -5.454000000     0.144000000
O     3.430000000    -5.936000000     0.258000000
O     1.426000000    -6.237000000    -0.243000000
