17
-92.45099
C    -0.702000000    -2.983000000    -0.653000000
H    -1.229000000    -3.518000000    -1.439000000
C    -0.572000000    -1.606000000    -0.733000000
H    -0.942000000    -1.165000000    -1.655000000
C    -0.140000000    -0.867000000     0.322000000
C    -0.085000000     0.620000000     0.167000000
H    -0.233000000     1.155000000     1.107000000
H     0.891000000     0.870000000    -0.256000000
H    -0.899000000     0.997000000    -0.456000000
C     0.524000000    -1.493000000     1.325000000
H     0.988000000    -0.816000000     2.037000000
C     0.484000000    -2.905000000     1.465000000
H     1.010000000    -3.299000000     2.331000000
C    -0.186000000    -3.678000000     0.484000000
C    -0.125000000    -5.190000000     0.522000000
O     0.357000000    -5.735000000     1.510000000
O    -0.849000000    -5.822000000    -0.239000000
