17
-91.56569
C     0.487000000    -2.468000000    -1.069000000
H     0.413000000    -3.086000000    -1.959000000
C     0.023000000    -1.187000000    -1.089000000
H    -0.449000000    -0.779000000    -1.979000000
C     0.092000000    -0.446000000     0.045000000
C    -0.499000000     0.960000000    -0.079000000
H    -0.537000000     1.507000000     0.865000000
H     0.178000000     1.616000000    -0.631000000
H    -1.470000000     1.129000000    -0.549000000
C     0.600000000    -0.912000000     1.228000000
H     0.675000000    -0.346000000     2.154000000
C     1.031000000    -2.288000000     1.286000000
H     1.282000000    -2.777000000     2.224000000
C     0.936000000    -3.041000000     0.116000000
C     1.356000000    -4.441000000     0.046000000
O     2.069000000    -4.916000000     0.895000000
O     0.843000000    -5.176000000    -0.788000000
