17
-95.24926
C    -0.321000000    -2.436000000    -0.827000000
H    -0.689000000    -3.249000000    -1.448000000
C    -0.609000000    -1.050000000    -0.988000000
H    -1.240000000    -0.665000000    -1.785000000
C    -0.167000000    -0.133000000    -0.038000000
C    -0.482000000     1.352000000    -0.248000000
H     0.430000000     1.944000000    -0.144000000
H    -0.994000000     1.502000000    -1.201000000
H    -1.226000000     1.617000000     0.506000000
C     0.617000000    -0.529000000     1.024000000
H     0.815000000     0.270000000     1.733000000
C     0.924000000    -1.914000000     1.170000000
H     1.570000000    -2.192000000     1.999000000
C     0.449000000    -2.829000000     0.239000000
C     0.735000000    -4.332000000     0.597000000
O     1.107000000    -4.549000000     1.730000000
O     0.226000000    -5.215000000    -0.078000000
