17
-100.93837
C    -0.335000000    -2.666000000    -0.547000000
H    -0.799000000    -3.450000000    -1.140000000
C    -0.623000000    -1.366000000    -0.913000000
H    -1.258000000    -1.176000000    -1.774000000
C    -0.282000000    -0.328000000    -0.020000000
C    -0.660000000     1.097000000    -0.311000000
H    -0.840000000     1.108000000    -1.388000000
H    -1.539000000     1.483000000     0.210000000
H     0.148000000     1.802000000    -0.104000000
C     0.438000000    -0.632000000     1.133000000
H     0.692000000     0.131000000     1.864000000
C     0.760000000    -1.966000000     1.503000000
H     1.193000000    -2.144000000     2.483000000
C     0.267000000    -2.995000000     0.657000000
C     0.509000000    -4.435000000     1.029000000
O     1.053000000    -4.618000000     2.120000000
O     0.021000000    -5.359000000     0.355000000
