17
-99.96207
C    -0.427000000    -3.197000000     1.104000000
H    -0.854000000    -4.130000000     0.743000000
C    -0.580000000    -2.034000000     0.350000000
H    -1.182000000    -2.109000000    -0.552000000
C    -0.119000000    -0.822000000     0.852000000
C    -0.398000000     0.400000000     0.014000000
H     0.491000000     1.034000000     0.035000000
H    -0.611000000     0.182000000    -1.035000000
H    -1.184000000     1.077000000     0.354000000
C     0.651000000    -0.801000000     2.008000000
H     1.120000000     0.128000000     2.322000000
C     0.856000000    -1.935000000     2.761000000
H     1.359000000    -1.870000000     3.723000000
C     0.305000000    -3.149000000     2.282000000
C     0.513000000    -4.360000000     3.169000000
O     1.144000000    -4.254000000     4.178000000
O    -0.032000000    -5.406000000     2.847000000
