17
-91.02297
C     0.088000000    -3.578000000    -0.317000000
H     0.056000000    -4.472000000    -0.935000000
C    -0.278000000    -2.261000000    -0.736000000
H    -0.476000000    -2.066000000    -1.787000000
C    -0.284000000    -1.223000000     0.163000000
C    -0.615000000     0.196000000    -0.191000000
H    -0.872000000     0.389000000    -1.234000000
H    -1.497000000     0.523000000     0.363000000
H     0.138000000     0.937000000     0.084000000
C     0.135000000    -1.524000000     1.408000000
H     0.231000000    -0.792000000     2.205000000
C     0.502000000    -2.796000000     1.856000000
H     0.751000000    -2.972000000     2.900000000
C     0.453000000    -3.844000000     0.990000000
C     0.751000000    -5.312000000     1.384000000
O     1.049000000    -5.455000000     2.514000000
O     0.739000000    -6.259000000     0.610000000
