17
-78.07447
C    -0.551000000    -2.443000000    -0.880000000
H    -0.913000000    -3.003000000    -1.738000000
C    -0.547000000    -1.061000000    -0.901000000
H    -0.791000000    -0.687000000    -1.892000000
C    -0.210000000    -0.334000000     0.221000000
C    -0.368000000     1.199000000     0.104000000
H    -0.543000000     1.537000000     1.127000000
H     0.596000000     1.597000000    -0.220000000
H    -1.143000000     1.501000000    -0.604000000
C     0.238000000    -1.037000000     1.328000000
H     0.631000000    -0.529000000     2.205000000
C     0.107000000    -2.400000000     1.430000000
H     0.275000000    -2.903000000     2.379000000
C    -0.348000000    -3.127000000     0.342000000
C    -0.446000000    -4.648000000     0.343000000
O    -0.209000000    -5.267000000     1.349000000
O    -0.214000000    -5.276000000    -0.647000000
