17
-99.49552
C     1.273000000    -2.445000000    -0.404000000
H     2.196000000    -2.857000000    -0.804000000
C     0.973000000    -1.105000000    -0.707000000
H     1.669000000    -0.613000000    -1.381000000
C    -0.188000000    -0.488000000    -0.174000000
C    -0.585000000     0.891000000    -0.629000000
H    -1.639000000     1.111000000    -0.448000000
H     0.010000000     1.610000000    -0.062000000
H    -0.416000000     1.068000000    -1.694000000
C    -0.898000000    -1.170000000     0.807000000
H    -1.739000000    -0.601000000     1.195000000
C    -0.614000000    -2.476000000     1.174000000
H    -1.118000000    -2.976000000     1.997000000
C     0.454000000    -3.157000000     0.558000000
C     0.875000000    -4.590000000     0.872000000
O     0.287000000    -5.168000000     1.786000000
O     1.857000000    -5.124000000     0.367000000
