17
-98.36961
C     0.377000000    -2.252000000    -1.651000000
H     0.272000000    -2.471000000    -2.710000000
C    -0.091000000    -0.988000000    -1.248000000
H    -0.490000000    -0.359000000    -2.039000000
C    -0.029000000    -0.594000000     0.061000000
C    -0.643000000     0.724000000     0.463000000
H    -1.281000000     0.541000000     1.330000000
H     0.126000000     1.455000000     0.720000000
H    -1.298000000     1.183000000    -0.280000000
C     0.550000000    -1.420000000     1.012000000
H     0.433000000    -1.118000000     2.049000000
C     1.072000000    -2.708000000     0.686000000
H     1.459000000    -3.388000000     1.441000000
C     0.947000000    -3.137000000    -0.692000000
C     1.245000000    -4.584000000    -1.083000000
O     1.569000000    -5.413000000    -0.227000000
O     1.357000000    -4.807000000    -2.269000000
