17
-89.84459
C     1.308000000    -2.343000000    -0.650000000
H     1.993000000    -2.791000000    -1.365000000
C     0.940000000    -1.047000000    -0.993000000
H     1.233000000    -0.572000000    -1.926000000
C     0.120000000    -0.350000000    -0.193000000
C    -0.379000000     1.075000000    -0.553000000
H    -0.870000000     1.492000000     0.329000000
H     0.428000000     1.752000000    -0.837000000
H    -1.084000000     1.070000000    -1.388000000
C    -0.287000000    -0.843000000     1.050000000
H    -0.780000000    -0.215000000     1.787000000
C     0.023000000    -2.124000000     1.388000000
H    -0.338000000    -2.523000000     2.332000000
C     0.868000000    -2.872000000     0.592000000
C     1.435000000    -4.188000000     1.092000000
O     0.986000000    -4.674000000     2.055000000
O     2.436000000    -4.698000000     0.562000000
