17
-90.60365
C     0.867000000    -2.030000000    -0.440000000
H     1.619000000    -2.448000000    -1.104000000
C     0.311000000    -0.807000000    -0.872000000
H     0.737000000    -0.331000000    -1.752000000
C    -0.604000000    -0.073000000    -0.135000000
C    -1.007000000     1.266000000    -0.666000000
H    -0.179000000     1.959000000    -0.496000000
H    -1.287000000     1.206000000    -1.720000000
H    -1.851000000     1.537000000    -0.028000000
C    -0.905000000    -0.561000000     1.147000000
H    -1.623000000    -0.019000000     1.757000000
C    -0.470000000    -1.793000000     1.580000000
H    -0.912000000    -2.185000000     2.492000000
C     0.509000000    -2.495000000     0.864000000
C     1.124000000    -3.774000000     1.375000000
O     0.764000000    -4.152000000     2.468000000
O     1.934000000    -4.385000000     0.772000000
