17
-96.09076
C     1.060000000    -2.399000000    -0.581000000
H     1.939000000    -2.940000000    -0.924000000
C     0.824000000    -1.099000000    -0.932000000
H     1.416000000    -0.697000000    -1.750000000
C    -0.171000000    -0.394000000    -0.283000000
C    -0.611000000     0.982000000    -0.717000000
H    -1.030000000     0.907000000    -1.722000000
H    -1.422000000     1.310000000    -0.063000000
H     0.258000000     1.642000000    -0.681000000
C    -0.889000000    -0.969000000     0.797000000
H    -1.594000000    -0.429000000     1.423000000
C    -0.608000000    -2.247000000     1.150000000
H    -1.217000000    -2.723000000     1.914000000
C     0.372000000    -2.975000000     0.495000000
C     0.709000000    -4.445000000     0.907000000
O     0.108000000    -4.907000000     1.854000000
O     1.673000000    -5.048000000     0.464000000
