17
-97.96572
C     0.924000000    -1.911000000    -1.431000000
H     1.087000000    -2.271000000    -2.444000000
C     0.126000000    -0.792000000    -1.063000000
H    -0.377000000    -0.219000000    -1.838000000
C     0.064000000    -0.356000000     0.254000000
C    -0.787000000     0.833000000     0.613000000
H    -1.009000000     0.788000000     1.681000000
H    -0.221000000     1.746000000     0.417000000
H    -1.737000000     0.858000000     0.075000000
C     0.662000000    -1.122000000     1.250000000
H     0.461000000    -0.767000000     2.258000000
C     1.388000000    -2.281000000     0.922000000
H     1.883000000    -2.830000000     1.719000000
C     1.563000000    -2.620000000    -0.432000000
C     2.429000000    -3.825000000    -0.794000000
O     3.067000000    -4.444000000     0.050000000
O     2.435000000    -4.262000000    -1.913000000
