17
-89.71568
C     2.071000000    -2.366000000    -0.308000000
H     3.143000000    -2.514000000    -0.410000000
C     1.460000000    -1.207000000    -0.752000000
H     2.090000000    -0.548000000    -1.345000000
C     0.191000000    -0.909000000    -0.267000000
C    -0.312000000     0.472000000    -0.382000000
H    -1.360000000     0.517000000    -0.687000000
H    -0.278000000     0.994000000     0.577000000
H     0.267000000     1.184000000    -0.974000000
C    -0.593000000    -1.921000000     0.301000000
H    -1.573000000    -1.662000000     0.694000000
C     0.009000000    -3.161000000     0.555000000
H    -0.517000000    -3.998000000     1.007000000
C     1.326000000    -3.356000000     0.260000000
C     1.958000000    -4.683000000     0.607000000
O     1.293000000    -5.550000000     0.982000000
O     3.171000000    -4.768000000     0.486000000
