17
-92.30818
C     2.036000000    -1.770000000     1.081000000
H     2.847000000    -1.807000000     1.804000000
C     1.466000000    -0.486000000     0.720000000
H     1.779000000     0.364000000     1.321000000
C     0.501000000    -0.386000000    -0.257000000
C    -0.264000000     0.914000000    -0.533000000
H    -0.721000000     0.864000000    -1.524000000
H    -1.068000000     1.020000000     0.198000000
H     0.385000000     1.790000000    -0.582000000
C     0.085000000    -1.539000000    -0.932000000
H    -0.594000000    -1.490000000    -1.780000000
C     0.592000000    -2.755000000    -0.563000000
H     0.329000000    -3.714000000    -1.002000000
C     1.645000000    -2.907000000     0.428000000
C     2.237000000    -4.268000000     0.714000000
O     1.629000000    -5.273000000     0.239000000
O     3.047000000    -4.468000000     1.535000000
