17
-96.69462
C     2.009000000    -1.461000000     0.879000000
H     2.762000000    -1.292000000     1.645000000
C     1.377000000    -0.260000000     0.472000000
H     1.714000000     0.709000000     0.829000000
C     0.164000000    -0.364000000    -0.261000000
C    -0.538000000     0.900000000    -0.698000000
H    -0.033000000     1.251000000    -1.600000000
H    -1.624000000     0.918000000    -0.817000000
H    -0.279000000     1.683000000     0.018000000
C    -0.254000000    -1.605000000    -0.734000000
H    -1.161000000    -1.662000000    -1.330000000
C     0.424000000    -2.788000000    -0.381000000
H     0.024000000    -3.731000000    -0.745000000
C     1.530000000    -2.703000000     0.459000000
C     2.173000000    -4.045000000     0.927000000
O     1.709000000    -5.119000000     0.661000000
O     3.087000000    -3.968000000     1.749000000
