17
-97.38918
C     0.762000000    -2.164000000    -1.615000000
H     0.804000000    -2.571000000    -2.623000000
C     0.080000000    -1.011000000    -1.282000000
H    -0.502000000    -0.505000000    -2.049000000
C     0.192000000    -0.395000000     0.002000000
C    -0.534000000     0.901000000     0.256000000
H     0.272000000     1.580000000     0.541000000
H    -0.976000000     1.315000000    -0.653000000
H    -1.225000000     0.831000000     1.098000000
C     1.007000000    -1.038000000     0.945000000
H     1.127000000    -0.579000000     1.923000000
C     1.703000000    -2.176000000     0.620000000
H     2.423000000    -2.669000000     1.269000000
C     1.532000000    -2.808000000    -0.667000000
C     2.407000000    -3.942000000    -1.058000000
O     3.388000000    -4.138000000    -0.359000000
O     2.021000000    -4.684000000    -1.915000000
