17
-98.37557
C     1.947000000    -2.634000000     0.352000000
H     2.917000000    -2.789000000     0.819000000
C     1.582000000    -1.301000000     0.190000000
H     2.221000000    -0.501000000     0.554000000
C     0.329000000    -0.950000000    -0.400000000
C    -0.114000000     0.512000000    -0.382000000
H    -0.944000000     0.684000000    -1.071000000
H    -0.445000000     0.832000000     0.608000000
H     0.695000000     1.212000000    -0.602000000
C    -0.510000000    -2.004000000    -0.832000000
H    -1.477000000    -1.769000000    -1.269000000
C    -0.122000000    -3.329000000    -0.648000000
H    -0.804000000    -4.100000000    -0.995000000
C     1.051000000    -3.738000000    -0.037000000
C     1.350000000    -5.223000000     0.050000000
O     0.422000000    -5.997000000    -0.078000000
O     2.459000000    -5.564000000     0.436000000
