17
-89.14603
C     2.209000000    -1.430000000     1.279000000
H     3.099000000    -1.278000000     1.883000000
C     1.543000000    -0.312000000     0.716000000
H     1.864000000     0.717000000     0.856000000
C     0.476000000    -0.552000000    -0.097000000
C    -0.285000000     0.647000000    -0.595000000
H    -1.336000000     0.523000000    -0.329000000
H     0.119000000     1.568000000    -0.169000000
H    -0.067000000     0.800000000    -1.654000000
C    -0.036000000    -1.837000000    -0.385000000
H    -0.911000000    -2.153000000    -0.947000000
C     0.601000000    -2.845000000     0.281000000
H     0.217000000    -3.848000000     0.113000000
C     1.688000000    -2.674000000     1.097000000
C     2.390000000    -3.848000000     1.749000000
O     1.834000000    -4.946000000     1.718000000
O     3.399000000    -3.728000000     2.320000000
