17
-95.83143
C     1.898000000    -2.977000000     0.129000000
H     2.880000000    -3.425000000     0.257000000
C     1.724000000    -1.643000000     0.250000000
H     2.576000000    -1.003000000     0.466000000
C     0.414000000    -1.109000000     0.221000000
C     0.174000000     0.339000000     0.484000000
H    -0.376000000     0.268000000     1.425000000
H     1.069000000     0.961000000     0.554000000
H    -0.428000000     0.730000000    -0.339000000
C    -0.657000000    -1.945000000     0.115000000
H    -1.654000000    -1.517000000     0.050000000
C    -0.527000000    -3.304000000     0.075000000
H    -1.442000000    -3.890000000     0.077000000
C     0.785000000    -3.835000000     0.064000000
C     1.059000000    -5.317000000     0.015000000
O     0.194000000    -6.082000000    -0.378000000
O     2.119000000    -5.713000000     0.435000000
