17
-98.59871
C     1.722000000    -1.454000000     1.565000000
H     2.513000000    -1.365000000     2.306000000
C     1.274000000    -0.429000000     0.799000000
H     1.832000000     0.502000000     0.735000000
C     0.036000000    -0.524000000     0.150000000
C    -0.575000000     0.690000000    -0.567000000
H    -1.144000000     0.472000000    -1.473000000
H    -1.159000000     1.181000000     0.214000000
H     0.167000000     1.426000000    -0.886000000
C    -0.718000000    -1.697000000     0.253000000
H    -1.704000000    -1.780000000    -0.198000000
C    -0.132000000    -2.817000000     0.791000000
H    -0.655000000    -3.768000000     0.733000000
C     1.102000000    -2.701000000     1.498000000
C     1.542000000    -3.876000000     2.316000000
O     0.932000000    -4.910000000     2.244000000
O     2.512000000    -3.724000000     3.087000000
