17
-97.00941
C     2.547000000    -1.698000000     2.571000000
H     3.388000000    -1.411000000     3.197000000
C     1.886000000    -0.679000000     1.961000000
H     2.140000000     0.347000000     2.216000000
C     0.824000000    -0.822000000     1.110000000
C    -0.063000000     0.317000000     0.634000000
H    -0.612000000     0.690000000     1.501000000
H     0.484000000     1.197000000     0.288000000
H    -0.800000000     0.034000000    -0.121000000
C     0.470000000    -2.149000000     0.757000000
H    -0.464000000    -2.278000000     0.215000000
C     1.285000000    -3.245000000     1.211000000
H     1.192000000    -4.264000000     0.845000000
C     2.312000000    -3.004000000     2.143000000
C     3.196000000    -4.124000000     2.653000000
O     3.074000000    -5.297000000     2.223000000
O     3.969000000    -3.863000000     3.547000000
