17
-89.95236
C     0.946000000    -1.248000000    -1.652000000
H     1.053000000    -1.521000000    -2.698000000
C     0.060000000    -0.291000000    -1.341000000
H    -0.527000000     0.067000000    -2.183000000
C    -0.124000000     0.141000000    -0.018000000
C    -0.934000000     1.270000000     0.435000000
H    -0.372000000     1.999000000     1.024000000
H    -1.466000000     1.771000000    -0.376000000
H    -1.707000000     0.955000000     1.139000000
C     0.565000000    -0.512000000     0.970000000
H     0.470000000    -0.060000000     1.955000000
C     1.414000000    -1.572000000     0.658000000
H     2.032000000    -2.084000000     1.393000000
C     1.649000000    -1.861000000    -0.691000000
C     2.787000000    -2.742000000    -1.123000000
O     3.589000000    -3.211000000    -0.307000000
O     2.879000000    -3.086000000    -2.276000000
