17
-99.44255
C     2.387000000    -2.403000000     1.217000000
H     3.432000000    -2.602000000     1.445000000
C     2.163000000    -1.204000000     0.591000000
H     3.019000000    -0.575000000     0.364000000
C     0.833000000    -0.801000000     0.269000000
C     0.652000000     0.570000000    -0.345000000
H     0.659000000     0.590000000    -1.437000000
H    -0.265000000     1.063000000    -0.015000000
H     1.508000000     1.197000000    -0.088000000
C    -0.264000000    -1.634000000     0.465000000
H    -1.268000000    -1.289000000     0.235000000
C     0.020000000    -2.893000000     1.063000000
H    -0.817000000    -3.471000000     1.448000000
C     1.315000000    -3.280000000     1.503000000
C     1.538000000    -4.578000000     2.193000000
O     0.629000000    -5.460000000     2.098000000
O     2.631000000    -4.884000000     2.710000000
