17
-97.57915
C     1.780000000    -1.794000000     0.883000000
H     2.841000000    -1.970000000     1.043000000
C     1.381000000    -0.501000000     0.411000000
H     2.150000000     0.265000000     0.357000000
C     0.043000000    -0.295000000     0.072000000
C    -0.499000000     1.102000000    -0.331000000
H    -1.019000000     1.608000000     0.486000000
H     0.328000000     1.773000000    -0.574000000
H    -1.095000000     1.089000000    -1.246000000
C    -0.873000000    -1.350000000     0.135000000
H    -1.927000000    -1.195000000    -0.082000000
C    -0.474000000    -2.622000000     0.609000000
H    -1.183000000    -3.442000000     0.687000000
C     0.883000000    -2.880000000     1.002000000
C     1.297000000    -4.233000000     1.469000000
O     0.462000000    -5.086000000     1.487000000
O     2.447000000    -4.456000000     1.787000000
