17
-94.21611
C     2.036000000    -1.126000000     1.103000000
H     3.041000000    -0.980000000     1.490000000
C     1.381000000    -0.098000000     0.421000000
H     1.949000000     0.828000000     0.379000000
C     0.134000000    -0.255000000    -0.178000000
C    -0.473000000     0.836000000    -0.996000000
H    -1.549000000     0.709000000    -1.135000000
H    -0.292000000     1.810000000    -0.538000000
H     0.045000000     0.812000000    -1.957000000
C    -0.484000000    -1.444000000    -0.092000000
H    -1.426000000    -1.565000000    -0.621000000
C     0.147000000    -2.521000000     0.558000000
H    -0.330000000    -3.496000000     0.616000000
C     1.377000000    -2.367000000     1.211000000
C     2.006000000    -3.583000000     1.883000000
O     1.412000000    -4.611000000     1.961000000
O     3.022000000    -3.411000000     2.485000000
