17
-92.41739
C     1.801000000    -0.929000000     1.805000000
H     2.432000000    -0.649000000     2.645000000
C     1.134000000     0.112000000     1.162000000
H     1.334000000     1.098000000     1.573000000
C     0.233000000    -0.156000000     0.167000000
C    -0.510000000     0.949000000    -0.431000000
H    -1.266000000     0.644000000    -1.158000000
H    -1.008000000     1.420000000     0.418000000
H     0.219000000     1.622000000    -0.887000000
C     0.072000000    -1.444000000    -0.293000000
H    -0.731000000    -1.630000000    -1.001000000
C     0.787000000    -2.475000000     0.294000000
H     0.496000000    -3.487000000     0.022000000
C     1.615000000    -2.294000000     1.430000000
C     2.118000000    -3.395000000     2.299000000
O     1.805000000    -4.566000000     2.091000000
O     2.800000000    -3.219000000     3.358000000
