17
-81.12770
C     1.654000000    -1.066000000    -2.344000000
H     1.605000000    -1.283000000    -3.408000000
C     0.679000000    -0.284000000    -1.708000000
H    -0.226000000     0.020000000    -2.229000000
C     0.744000000    -0.057000000    -0.277000000
C    -0.390000000     0.761000000     0.361000000
H    -0.619000000     0.394000000     1.364000000
H    -0.093000000     1.773000000     0.645000000
H    -1.285000000     0.805000000    -0.263000000
C     1.849000000    -0.509000000     0.455000000
H     1.850000000    -0.362000000     1.532000000
C     2.855000000    -1.244000000    -0.257000000
H     3.635000000    -1.730000000     0.322000000
C     2.764000000    -1.458000000    -1.621000000
C     3.776000000    -2.415000000    -2.197000000
O     4.376000000    -3.189000000    -1.502000000
O     3.696000000    -2.816000000    -3.338000000
