17
-94.93165
C     1.614000000    -2.094000000     0.936000000
H     2.368000000    -2.494000000     1.609000000
C     1.171000000    -0.771000000     0.970000000
H     1.635000000    -0.112000000     1.700000000
C     0.157000000    -0.329000000     0.150000000
C    -0.256000000     1.079000000     0.092000000
H    -1.278000000     1.211000000     0.451000000
H     0.406000000     1.761000000     0.630000000
H    -0.257000000     1.522000000    -0.906000000
C    -0.593000000    -1.195000000    -0.657000000
H    -1.421000000    -0.888000000    -1.291000000
C    -0.202000000    -2.534000000    -0.665000000
H    -0.592000000    -3.269000000    -1.365000000
C     0.810000000    -3.013000000     0.238000000
C     1.147000000    -4.468000000     0.345000000
O     0.433000000    -5.331000000    -0.179000000
O     1.963000000    -4.792000000     1.170000000
