17
-93.63156
C     1.654000000    -1.867000000     0.950000000
H     2.570000000    -1.989000000     1.522000000
C     1.196000000    -0.580000000     0.622000000
H     1.768000000     0.269000000     0.988000000
C     0.042000000    -0.449000000    -0.197000000
C    -0.367000000     0.982000000    -0.612000000
H    -0.201000000     1.717000000     0.179000000
H     0.233000000     1.199000000    -1.498000000
H    -1.413000000     0.985000000    -0.926000000
C    -0.674000000    -1.583000000    -0.683000000
H    -1.571000000    -1.451000000    -1.282000000
C    -0.238000000    -2.817000000    -0.227000000
H    -0.849000000    -3.625000000    -0.620000000
C     0.985000000    -2.955000000     0.385000000
C     1.475000000    -4.335000000     0.714000000
O     0.745000000    -5.306000000     0.637000000
O     2.713000000    -4.576000000     0.828000000
