17
-89.91648
C     1.788000000    -1.529000000     1.617000000
H     2.361000000    -1.486000000     2.540000000
C     1.081000000    -0.398000000     1.270000000
H     1.079000000     0.470000000     1.924000000
C     0.293000000    -0.315000000     0.147000000
C    -0.449000000     0.967000000    -0.288000000
H    -1.197000000     1.191000000     0.476000000
H     0.299000000     1.756000000    -0.387000000
H    -0.947000000     0.881000000    -1.256000000
C     0.136000000    -1.501000000    -0.567000000
H    -0.639000000    -1.453000000    -1.328000000
C     0.837000000    -2.694000000    -0.265000000
H     0.531000000    -3.485000000    -0.945000000
C     1.611000000    -2.688000000     0.839000000
C     2.264000000    -3.940000000     1.299000000
O     2.102000000    -4.872000000     0.551000000
O     2.894000000    -4.090000000     2.326000000
