17
-91.79733
C     1.720000000    -1.122000000     1.834000000
H     2.141000000    -1.189000000     2.834000000
C     0.902000000    -0.029000000     1.498000000
H     0.847000000     0.737000000     2.267000000
C     0.262000000    -0.007000000     0.243000000
C    -0.461000000     1.227000000    -0.144000000
H     0.240000000     2.028000000     0.097000000
H    -0.767000000     1.212000000    -1.192000000
H    -1.331000000     1.241000000     0.517000000
C     0.340000000    -1.105000000    -0.597000000
H    -0.279000000    -1.257000000    -1.478000000
C     1.153000000    -2.213000000    -0.245000000
H     1.027000000    -3.050000000    -0.927000000
C     1.874000000    -2.253000000     0.972000000
C     2.716000000    -3.414000000     1.346000000
O     2.693000000    -4.403000000     0.632000000
O     3.355000000    -3.482000000     2.359000000
