17
-83.40543
C     2.332000000    -2.232000000     1.506000000
H     2.972000000    -2.433000000     2.362000000
C     1.497000000    -1.142000000     1.350000000
H     1.349000000    -0.363000000     2.093000000
C     0.683000000    -1.048000000     0.246000000
C    -0.374000000     0.057000000     0.132000000
H     0.191000000     0.981000000    -0.007000000
H    -1.065000000    -0.075000000    -0.703000000
H    -0.933000000     0.113000000     1.069000000
C     0.651000000    -2.006000000    -0.766000000
H    -0.118000000    -1.962000000    -1.533000000
C     1.515000000    -3.079000000    -0.667000000
H     1.469000000    -3.819000000    -1.462000000
C     2.297000000    -3.202000000     0.496000000
C     3.121000000    -4.395000000     0.553000000
O     2.763000000    -5.459000000     0.024000000
O     4.030000000    -4.425000000     1.258000000
