17
-89.02902
C     1.302000000    -1.129000000     1.863000000
H     2.074000000    -1.095000000     2.628000000
C     0.839000000     0.017000000     1.192000000
H     1.389000000     0.936000000     1.379000000
C    -0.145000000     0.015000000     0.184000000
C    -0.497000000     1.220000000    -0.581000000
H    -1.392000000     1.090000000    -1.192000000
H    -0.665000000     2.023000000     0.139000000
H     0.252000000     1.459000000    -1.339000000
C    -0.864000000    -1.204000000    -0.036000000
H    -1.666000000    -1.219000000    -0.770000000
C    -0.461000000    -2.302000000     0.684000000
H    -0.815000000    -3.300000000     0.436000000
C     0.621000000    -2.311000000     1.579000000
C     1.126000000    -3.604000000     2.178000000
O     0.579000000    -4.634000000     1.972000000
O     1.993000000    -3.623000000     3.010000000
