17
-95.29507
C     1.602000000    -0.356000000     2.179000000
H     2.297000000    -0.015000000     2.942000000
C     0.973000000     0.638000000     1.428000000
H     1.081000000     1.714000000     1.540000000
C     0.183000000     0.169000000     0.403000000
C    -0.545000000     1.115000000    -0.522000000
H    -0.544000000     2.122000000    -0.100000000
H    -0.039000000     1.096000000    -1.489000000
H    -1.590000000     0.838000000    -0.681000000
C    -0.049000000    -1.190000000     0.252000000
H    -0.681000000    -1.539000000    -0.560000000
C     0.497000000    -2.110000000     1.106000000
H     0.334000000    -3.183000000     1.050000000
C     1.370000000    -1.698000000     2.048000000
C     2.057000000    -2.734000000     2.955000000
O     1.953000000    -3.935000000     2.774000000
O     2.781000000    -2.380000000     3.872000000
