17
-89.21081
C     3.936000000    -1.958000000     0.396000000
H     4.657000000    -1.527000000     1.087000000
C     2.551000000    -1.927000000     0.686000000
H     2.188000000    -1.413000000     1.572000000
C     1.623000000    -2.506000000    -0.170000000
C     0.132000000    -2.271000000     0.080000000
H    -0.453000000    -2.920000000    -0.575000000
H    -0.159000000    -2.335000000     1.131000000
H    -0.019000000    -1.201000000    -0.081000000
C     2.109000000    -3.017000000    -1.366000000
H     1.519000000    -3.496000000    -2.143000000
C     3.456000000    -3.083000000    -1.615000000
H     3.747000000    -3.664000000    -2.486000000
C     4.368000000    -2.628000000    -0.726000000
C     5.854000000    -2.651000000    -1.001000000
O     6.240000000    -3.056000000    -2.052000000
O     6.586000000    -2.132000000    -0.226000000
