17
-93.21272
C     1.819000000    -1.194000000     1.699000000
H     2.669000000    -0.874000000     2.296000000
C     1.014000000    -0.110000000     1.319000000
H     1.216000000     0.853000000     1.782000000
C    -0.018000000    -0.405000000     0.407000000
C    -0.862000000     0.705000000    -0.069000000
H    -1.906000000     0.451000000    -0.267000000
H    -0.917000000     1.470000000     0.708000000
H    -0.451000000     1.126000000    -0.989000000
C    -0.133000000    -1.691000000    -0.123000000
H    -0.953000000    -2.002000000    -0.766000000
C     0.705000000    -2.703000000     0.151000000
H     0.549000000    -3.736000000    -0.151000000
C     1.684000000    -2.453000000     1.109000000
C     2.601000000    -3.586000000     1.583000000
O     2.370000000    -4.744000000     1.299000000
O     3.551000000    -3.383000000     2.364000000
