17
-89.73071
C     1.320000000    -0.634000000     1.806000000
H     2.037000000    -0.255000000     2.529000000
C     0.591000000     0.353000000     1.139000000
H     0.604000000     1.400000000     1.431000000
C    -0.226000000    -0.065000000     0.070000000
C    -1.005000000     1.002000000    -0.632000000
H    -0.405000000     1.288000000    -1.498000000
H    -1.977000000     0.586000000    -0.903000000
H    -1.296000000     1.831000000     0.017000000
C    -0.235000000    -1.403000000    -0.375000000
H    -0.808000000    -1.732000000    -1.239000000
C     0.404000000    -2.323000000     0.423000000
H     0.348000000    -3.360000000     0.102000000
C     1.172000000    -2.004000000     1.513000000
C     1.911000000    -3.080000000     2.238000000
O     1.852000000    -4.212000000     1.892000000
O     2.758000000    -2.746000000     3.012000000
