17
-94.59999
C     4.162000000    -2.039000000     0.737000000
H     5.089000000    -2.033000000     1.304000000
C     2.937000000    -1.547000000     1.248000000
H     2.952000000    -1.049000000     2.214000000
C     1.721000000    -1.740000000     0.539000000
C     0.441000000    -1.169000000     1.049000000
H    -0.376000000    -1.742000000     0.607000000
H     0.385000000    -1.176000000     2.140000000
H     0.340000000    -0.189000000     0.579000000
C     1.825000000    -2.329000000    -0.742000000
H     0.932000000    -2.461000000    -1.348000000
C     3.045000000    -2.870000000    -1.289000000
H     3.118000000    -3.543000000    -2.140000000
C     4.221000000    -2.663000000    -0.473000000
C     5.627000000    -3.068000000    -0.957000000
O     5.689000000    -3.641000000    -2.022000000
O     6.710000000    -2.754000000    -0.370000000
