17
-96.15690
C     2.446000000    -1.152000000     0.336000000
H     3.383000000    -1.102000000     0.884000000
C     1.353000000    -0.239000000     0.432000000
H     1.426000000     0.597000000     1.124000000
C     0.243000000    -0.374000000    -0.405000000
C    -0.846000000     0.626000000    -0.271000000
H    -1.205000000     0.660000000     0.760000000
H    -0.439000000     1.584000000    -0.601000000
H    -1.689000000     0.396000000    -0.925000000
C     0.161000000    -1.532000000    -1.210000000
H    -0.775000000    -1.706000000    -1.734000000
C     1.176000000    -2.476000000    -1.172000000
H     1.139000000    -3.435000000    -1.682000000
C     2.347000000    -2.349000000    -0.436000000
C     3.354000000    -3.459000000    -0.267000000
O     3.423000000    -4.477000000    -0.986000000
O     4.188000000    -3.372000000     0.619000000
