17
-96.34830
C     2.539000000    -0.825000000     0.556000000
H     3.446000000    -0.585000000     1.104000000
C     1.511000000     0.085000000     0.623000000
H     1.624000000     1.026000000     1.154000000
C     0.391000000    -0.126000000    -0.144000000
C    -0.633000000     0.986000000    -0.214000000
H    -1.395000000     0.691000000     0.511000000
H    -0.211000000     1.978000000    -0.039000000
H    -1.040000000     0.983000000    -1.227000000
C     0.245000000    -1.314000000    -0.875000000
H    -0.601000000    -1.458000000    -1.542000000
C     1.188000000    -2.353000000    -0.796000000
H     1.000000000    -3.218000000    -1.427000000
C     2.322000000    -2.086000000     0.023000000
C     3.365000000    -3.147000000     0.158000000
O     3.139000000    -4.203000000    -0.438000000
O     4.398000000    -2.960000000     0.746000000
