17
-87.95621
C     2.486000000    -1.147000000     0.258000000
H     3.438000000    -1.104000000     0.780000000
C     1.473000000    -0.122000000     0.488000000
H     1.578000000     0.764000000     1.109000000
C     0.248000000    -0.257000000    -0.078000000
C    -0.889000000     0.770000000     0.219000000
H    -1.449000000     0.370000000     1.067000000
H    -0.427000000     1.724000000     0.484000000
H    -1.557000000     0.943000000    -0.627000000
C    -0.039000000    -1.383000000    -0.810000000
H    -0.994000000    -1.485000000    -1.319000000
C     0.924000000    -2.394000000    -0.951000000
H     0.664000000    -3.249000000    -1.570000000
C     2.175000000    -2.366000000    -0.326000000
C     3.246000000    -3.472000000    -0.386000000
O     2.997000000    -4.538000000    -0.950000000
O     4.356000000    -3.239000000    -0.083000000
