17
-93.46480
C     2.378000000    -0.816000000     1.364000000
H     3.168000000    -0.475000000     2.027000000
C     1.266000000    -0.011000000     1.119000000
H     1.135000000     0.995000000     1.508000000
C     0.258000000    -0.411000000     0.203000000
C    -0.890000000     0.452000000    -0.015000000
H    -0.924000000     0.693000000    -1.079000000
H    -1.866000000     0.226000000     0.421000000
H    -0.586000000     1.435000000     0.351000000
C     0.342000000    -1.637000000    -0.418000000
H    -0.511000000    -1.979000000    -0.998000000
C     1.507000000    -2.399000000    -0.205000000
H     1.565000000    -3.398000000    -0.630000000
C     2.526000000    -1.982000000     0.636000000
C     3.587000000    -2.937000000     1.027000000
O     3.614000000    -4.079000000     0.610000000
O     4.325000000    -2.590000000     1.942000000
