17
-93.54530
C     2.209000000    -0.661000000     1.244000000
H     2.974000000    -0.295000000     1.923000000
C     1.421000000     0.278000000     0.645000000
H     1.621000000     1.307000000     0.933000000
C     0.423000000     0.036000000    -0.279000000
C    -0.507000000     1.146000000    -0.655000000
H     0.031000000     2.000000000    -1.071000000
H    -1.168000000     0.903000000    -1.490000000
H    -1.181000000     1.363000000     0.177000000
C     0.260000000    -1.298000000    -0.624000000
H    -0.517000000    -1.601000000    -1.321000000
C     1.061000000    -2.333000000    -0.043000000
H     0.891000000    -3.378000000    -0.290000000
C     2.071000000    -1.976000000     0.937000000
C     2.936000000    -2.936000000     1.692000000
O     2.960000000    -4.077000000     1.281000000
O     3.751000000    -2.549000000     2.527000000
