17
-96.18698
C     2.137000000    -0.605000000     1.387000000
H     2.838000000    -0.425000000     2.198000000
C     1.148000000     0.293000000     0.979000000
H     1.163000000     1.291000000     1.411000000
C     0.259000000    -0.050000000    -0.019000000
C    -0.819000000     0.896000000    -0.483000000
H    -1.740000000     0.694000000     0.067000000
H    -0.616000000     1.937000000    -0.225000000
H    -0.966000000     0.904000000    -1.565000000
C     0.214000000    -1.340000000    -0.474000000
H    -0.552000000    -1.626000000    -1.190000000
C     1.250000000    -2.223000000    -0.142000000
H     1.295000000    -3.196000000    -0.624000000
C     2.248000000    -1.866000000     0.752000000
C     3.250000000    -2.859000000     1.142000000
O     3.309000000    -3.944000000     0.649000000
O     4.084000000    -2.547000000     1.996000000
