17
-95.65875
C     1.685000000    -0.980000000     1.326000000
H     2.409000000    -0.728000000     2.097000000
C     0.946000000     0.111000000     0.783000000
H     1.132000000     1.129000000     1.115000000
C     0.044000000    -0.117000000    -0.197000000
C    -0.631000000     0.992000000    -0.943000000
H     0.114000000     1.729000000    -1.250000000
H    -1.148000000     0.676000000    -1.851000000
H    -1.449000000     1.410000000    -0.353000000
C    -0.288000000    -1.403000000    -0.587000000
H    -1.109000000    -1.537000000    -1.287000000
C     0.264000000    -2.511000000     0.044000000
H    -0.026000000    -3.530000000    -0.200000000
C     1.336000000    -2.335000000     0.945000000
C     2.064000000    -3.461000000     1.522000000
O     2.128000000    -4.535000000     0.878000000
O     2.540000000    -3.340000000     2.611000000
