17
-90.13678
C     2.424000000    -0.772000000     0.447000000
H     3.428000000    -0.539000000     0.791000000
C     1.388000000     0.146000000     0.213000000
H     1.446000000     1.208000000     0.440000000
C     0.112000000    -0.361000000    -0.092000000
C    -0.911000000     0.776000000    -0.180000000
H    -1.640000000     0.578000000    -0.968000000
H    -1.539000000     0.701000000     0.710000000
H    -0.645000000     1.835000000    -0.204000000
C    -0.119000000    -1.632000000    -0.455000000
H    -1.080000000    -1.967000000    -0.837000000
C     0.955000000    -2.495000000    -0.417000000
H     0.812000000    -3.560000000    -0.585000000
C     2.237000000    -2.062000000     0.040000000
C     3.377000000    -3.056000000     0.139000000
O     3.066000000    -4.218000000    -0.068000000
O     4.521000000    -2.811000000     0.562000000
