17
-84.16127
C     2.696000000    -0.809000000     1.864000000
H     3.221000000    -0.647000000     2.802000000
C     1.436000000    -0.293000000     1.654000000
H     0.953000000     0.309000000     2.419000000
C     0.816000000    -0.497000000     0.412000000
C    -0.493000000     0.145000000     0.021000000
H    -0.851000000    -0.042000000    -0.994000000
H    -1.148000000    -0.289000000     0.779000000
H    -0.526000000     1.232000000     0.130000000
C     1.487000000    -1.159000000    -0.663000000
H     1.096000000    -1.311000000    -1.666000000
C     2.778000000    -1.593000000    -0.435000000
H     3.284000000    -1.843000000    -1.364000000
C     3.407000000    -1.444000000     0.826000000
C     4.748000000    -1.946000000     1.087000000
O     5.359000000    -2.408000000     0.200000000
O     5.191000000    -2.121000000     2.224000000
