17
-85.42378
C     2.087000000    -1.159000000     1.681000000
H     2.354000000    -1.672000000     2.601000000
C     0.770000000    -0.940000000     1.346000000
H    -0.011000000    -1.127000000     2.078000000
C     0.415000000    -0.270000000     0.161000000
C    -0.949000000     0.321000000    -0.173000000
H    -0.801000000     1.238000000    -0.746000000
H    -1.382000000    -0.502000000    -0.744000000
H    -1.534000000     0.612000000     0.702000000
C     1.458000000     0.055000000    -0.676000000
H     1.207000000     0.566000000    -1.603000000
C     2.765000000    -0.213000000    -0.418000000
H     3.581000000     0.107000000    -1.061000000
C     3.069000000    -0.834000000     0.773000000
C     4.550000000    -1.257000000     1.043000000
O     5.236000000    -1.348000000     0.099000000
O     4.905000000    -1.801000000     2.074000000
