17
-90.92988
C     1.796000000    -0.301000000     1.923000000
H     2.048000000    -0.672000000     2.913000000
C     0.449000000    -0.265000000     1.592000000
H    -0.314000000    -0.586000000     2.297000000
C     0.019000000     0.288000000     0.356000000
C    -1.445000000     0.311000000    -0.099000000
H    -2.143000000     0.011000000     0.685000000
H    -1.756000000     1.156000000    -0.717000000
H    -1.447000000    -0.460000000    -0.871000000
C     0.997000000     0.528000000    -0.596000000
H     0.614000000     0.914000000    -1.537000000
C     2.331000000     0.366000000    -0.374000000
H     3.064000000     0.492000000    -1.166000000
C     2.719000000    -0.041000000     0.874000000
C     4.173000000    -0.068000000     1.196000000
O     5.051000000    -0.004000000     0.316000000
O     4.535000000    -0.274000000     2.329000000
