17
-95.38261
C     2.089000000    -0.011000000     1.408000000
H     2.452000000    -0.178000000     2.419000000
C     0.736000000    -0.227000000     1.050000000
H     0.021000000    -0.615000000     1.771000000
C     0.298000000     0.183000000    -0.214000000
C    -1.176000000     0.239000000    -0.547000000
H    -1.467000000     1.271000000    -0.343000000
H    -1.370000000     0.109000000    -1.614000000
H    -1.726000000    -0.488000000     0.054000000
C     1.194000000     0.538000000    -1.202000000
H     0.860000000     0.757000000    -2.213000000
C     2.513000000     0.645000000    -0.869000000
H     3.276000000     0.950000000    -1.580000000
C     2.971000000     0.428000000     0.474000000
C     4.409000000     0.572000000     0.792000000
O     5.209000000     0.353000000    -0.143000000
O     4.811000000     0.468000000     1.937000000
