17
-99.78982
C     1.662000000    -0.510000000     2.041000000
H     1.770000000    -1.002000000     3.004000000
C     0.397000000    -0.173000000     1.484000000
H    -0.509000000    -0.297000000     2.073000000
C     0.229000000     0.402000000     0.238000000
C    -1.133000000     0.648000000    -0.386000000
H    -1.207000000     1.705000000    -0.654000000
H    -1.270000000     0.174000000    -1.361000000
H    -1.973000000     0.476000000     0.290000000
C     1.405000000     0.664000000    -0.460000000
H     1.328000000     1.137000000    -1.436000000
C     2.706000000     0.378000000     0.087000000
H     3.611000000     0.484000000    -0.505000000
C     2.805000000    -0.298000000     1.332000000
C     4.124000000    -0.572000000     2.016000000
O     5.145000000    -0.743000000     1.338000000
O     4.062000000    -0.787000000     3.245000000
