17
-94.32958
C     2.791000000     0.175000000     1.974000000
H     3.293000000    -0.246000000     2.842000000
C     1.578000000    -0.384000000     1.515000000
H     0.989000000    -1.081000000     2.105000000
C     0.988000000     0.111000000     0.356000000
C    -0.320000000    -0.569000000    -0.036000000
H    -1.092000000    -0.602000000     0.735000000
H    -0.773000000    -0.026000000    -0.869000000
H    -0.132000000    -1.575000000    -0.416000000
C     1.491000000     1.278000000    -0.283000000
H     0.961000000     1.584000000    -1.181000000
C     2.759000000     1.733000000     0.099000000
H     3.190000000     2.531000000    -0.500000000
C     3.392000000     1.197000000     1.222000000
C     4.740000000     1.776000000     1.504000000
O     5.238000000     2.603000000     0.767000000
O     5.325000000     1.317000000     2.429000000
