17
-95.17368
C     0.705000000     0.267000000     2.470000000
H     0.424000000     0.206000000     3.518000000
C    -0.334000000     0.173000000     1.529000000
H    -1.394000000     0.182000000     1.770000000
C    -0.053000000     0.039000000     0.192000000
C    -1.144000000    -0.038000000    -0.834000000
H    -1.454000000    -1.057000000    -1.073000000
H    -2.052000000     0.459000000    -0.487000000
H    -0.744000000     0.440000000    -1.731000000
C     1.273000000    -0.066000000    -0.148000000
H     1.613000000    -0.191000000    -1.173000000
C     2.343000000    -0.032000000     0.801000000
H     3.373000000    -0.230000000     0.516000000
C     2.062000000     0.220000000     2.130000000
C     3.136000000     0.215000000     3.185000000
O     4.294000000    -0.083000000     2.823000000
O     2.959000000     0.546000000     4.311000000
