17
-95.32393
C     2.005000000     0.075000000     2.485000000
H     2.044000000     0.165000000     3.568000000
C     0.750000000     0.179000000     1.972000000
H    -0.153000000     0.266000000     2.570000000
C     0.499000000    -0.090000000     0.583000000
C    -0.828000000     0.218000000    -0.061000000
H    -0.788000000     1.062000000    -0.754000000
H    -1.129000000    -0.639000000    -0.668000000
H    -1.575000000     0.442000000     0.703000000
C     1.575000000    -0.257000000    -0.249000000
H     1.503000000    -0.280000000    -1.334000000
C     2.823000000    -0.452000000     0.264000000
H     3.675000000    -0.695000000    -0.366000000
C     3.062000000    -0.350000000     1.645000000
C     4.424000000    -0.622000000     2.156000000
O     5.321000000    -0.935000000     1.378000000
O     4.679000000    -0.541000000     3.370000000
