17
-83.14038
C     1.602000000    -0.157000000     2.264000000
H     1.680000000    -0.131000000     3.348000000
C     0.415000000     0.064000000     1.643000000
H    -0.419000000     0.260000000     2.312000000
C     0.324000000    -0.032000000     0.272000000
C    -1.011000000     0.371000000    -0.354000000
H    -1.124000000     1.455000000    -0.288000000
H    -1.039000000    -0.037000000    -1.366000000
H    -1.852000000    -0.099000000     0.161000000
C     1.374000000    -0.427000000    -0.507000000
H     1.311000000    -0.476000000    -1.591000000
C     2.610000000    -0.553000000     0.052000000
H     3.499000000    -0.530000000    -0.574000000
C     2.775000000    -0.481000000     1.480000000
C     4.082000000    -0.751000000     2.090000000
O     5.068000000    -0.942000000     1.372000000
O     4.372000000    -0.546000000     3.230000000
