17
-88.79278
C     0.807000000    -0.592000000     2.274000000
H     0.613000000    -0.542000000     3.342000000
C    -0.038000000     0.060000000     1.380000000
H    -0.909000000     0.530000000     1.830000000
C     0.177000000    -0.019000000    -0.013000000
C    -0.839000000     0.575000000    -1.065000000
H    -1.880000000     0.316000000    -0.859000000
H    -0.732000000     1.660000000    -1.109000000
H    -0.593000000     0.295000000    -2.091000000
C     1.329000000    -0.718000000    -0.506000000
H     1.487000000    -0.684000000    -1.581000000
C     2.143000000    -1.363000000     0.392000000
H     3.054000000    -1.820000000     0.015000000
C     1.892000000    -1.313000000     1.754000000
C     2.889000000    -1.815000000     2.708000000
O     3.997000000    -2.161000000     2.322000000
O     2.720000000    -1.880000000     3.884000000
