17
-94.92264
C     1.130000000     0.383000000     2.085000000
H     1.125000000     0.385000000     3.172000000
C    -0.061000000     0.294000000     1.354000000
H    -0.998000000     0.111000000     1.873000000
C     0.063000000     0.323000000    -0.030000000
C    -1.166000000     0.328000000    -0.870000000
H    -1.644000000    -0.652000000    -0.934000000
H    -1.896000000     0.978000000    -0.382000000
H    -1.110000000     0.712000000    -1.891000000
C     1.313000000     0.453000000    -0.629000000
H     1.402000000     0.474000000    -1.712000000
C     2.524000000     0.525000000     0.160000000
H     3.456000000     0.727000000    -0.362000000
C     2.382000000     0.523000000     1.536000000
C     3.602000000     0.579000000     2.356000000
O     4.689000000     0.850000000     1.892000000
O     3.569000000     0.362000000     3.562000000
