17
-91.83673
C     1.732000000     0.247000000     2.461000000
H     1.777000000     0.179000000     3.545000000
C     0.495000000     0.197000000     1.852000000
H    -0.401000000     0.151000000     2.465000000
C     0.391000000     0.341000000     0.446000000
C    -0.947000000     0.276000000    -0.191000000
H    -1.018000000    -0.710000000    -0.653000000
H    -1.734000000     0.398000000     0.556000000
H    -1.228000000     1.049000000    -0.910000000
C     1.471000000     0.414000000    -0.341000000
H     1.319000000     0.636000000    -1.394000000
C     2.756000000     0.394000000     0.245000000
H     3.615000000     0.455000000    -0.419000000
C     2.874000000     0.227000000     1.698000000
C     4.243000000     0.008000000     2.420000000
O     5.230000000    -0.096000000     1.709000000
O     4.394000000     0.159000000     3.622000000
