17
-86.77873
C     0.862000000    -1.159000000     2.332000000
H     0.468000000    -1.362000000     3.324000000
C     0.008000000    -0.496000000     1.415000000
H    -0.883000000     0.047000000     1.719000000
C     0.495000000    -0.335000000     0.121000000
C    -0.288000000     0.557000000    -0.850000000
H    -0.031000000     0.353000000    -1.891000000
H    -1.374000000     0.466000000    -0.780000000
H    -0.037000000     1.608000000    -0.695000000
C     1.671000000    -1.023000000    -0.235000000
H     1.896000000    -1.004000000    -1.298000000
C     2.436000000    -1.693000000     0.705000000
H     3.292000000    -2.269000000     0.364000000
C     2.085000000    -1.727000000     2.067000000
C     2.849000000    -2.509000000     3.062000000
O     3.756000000    -3.185000000     2.729000000
O     2.777000000    -2.310000000     4.286000000
