17
-95.78629
C     0.709000000    -1.084000000     2.277000000
H     0.494000000    -1.201000000     3.336000000
C    -0.183000000    -0.387000000     1.490000000
H    -1.111000000    -0.046000000     1.942000000
C    -0.008000000    -0.345000000     0.120000000
C    -1.044000000     0.333000000    -0.773000000
H    -1.530000000     1.191000000    -0.303000000
H    -0.609000000     0.630000000    -1.729000000
H    -1.851000000    -0.340000000    -1.071000000
C     1.170000000    -0.966000000    -0.466000000
H     1.288000000    -0.917000000    -1.545000000
C     2.105000000    -1.540000000     0.347000000
H     3.061000000    -1.901000000    -0.023000000
C     1.914000000    -1.601000000     1.738000000
C     3.002000000    -2.168000000     2.659000000
O     3.984000000    -2.606000000     2.149000000
O     2.906000000    -2.293000000     3.906000000
