17
-92.16257
C     0.878000000    -0.588000000     2.205000000
H     0.563000000    -0.526000000     3.244000000
C     0.023000000    -0.044000000     1.190000000
H    -0.892000000     0.337000000     1.638000000
C     0.370000000    -0.059000000    -0.110000000
C    -0.640000000     0.557000000    -1.018000000
H    -1.283000000     1.289000000    -0.527000000
H    -0.038000000     0.991000000    -1.820000000
H    -1.250000000    -0.212000000    -1.496000000
C     1.532000000    -0.695000000    -0.537000000
H     1.875000000    -0.757000000    -1.566000000
C     2.414000000    -1.210000000     0.378000000
H     3.349000000    -1.610000000    -0.006000000
C     2.076000000    -1.240000000     1.745000000
C     3.035000000    -1.902000000     2.698000000
O     4.006000000    -2.583000000     2.355000000
O     2.874000000    -1.731000000     3.893000000
