17
-94.05252
C    -0.069000000    -2.022000000     2.101000000
H    -0.234000000    -2.233000000     3.155000000
C    -0.592000000    -0.927000000     1.367000000
H    -1.510000000    -0.471000000     1.728000000
C    -0.163000000    -0.664000000     0.117000000
C    -0.602000000     0.580000000    -0.642000000
H    -0.827000000     0.255000000    -1.660000000
H    -1.448000000     1.122000000    -0.213000000
H     0.236000000     1.278000000    -0.682000000
C     0.965000000    -1.357000000    -0.372000000
H     1.430000000    -1.091000000    -1.318000000
C     1.580000000    -2.367000000     0.352000000
H     2.377000000    -2.890000000    -0.170000000
C     1.042000000    -2.663000000     1.629000000
C     1.776000000    -3.651000000     2.497000000
O     2.980000000    -3.893000000     2.358000000
O     1.139000000    -4.308000000     3.338000000
