17
-95.71947
C    -0.183000000    -1.297000000     2.160000000
H    -0.634000000    -1.407000000     3.143000000
C    -0.673000000    -0.293000000     1.297000000
H    -1.467000000     0.404000000     1.554000000
C    -0.147000000    -0.114000000    -0.022000000
C    -0.765000000     0.919000000    -0.923000000
H     0.028000000     1.256000000    -1.595000000
H    -1.597000000     0.455000000    -1.455000000
H    -1.176000000     1.771000000    -0.378000000
C     0.803000000    -0.991000000    -0.429000000
H     1.263000000    -0.922000000    -1.411000000
C     1.197000000    -2.103000000     0.352000000
H     1.926000000    -2.833000000     0.010000000
C     0.740000000    -2.214000000     1.633000000
C     1.212000000    -3.378000000     2.460000000
O     2.064000000    -4.145000000     2.132000000
O     0.652000000    -3.546000000     3.539000000
