17
-90.74290
C     0.644000000    -1.588000000     2.006000000
H     0.208000000    -1.955000000     2.931000000
C    -0.155000000    -0.726000000     1.201000000
H    -1.189000000    -0.516000000     1.462000000
C     0.337000000    -0.233000000     0.012000000
C    -0.545000000     0.713000000    -0.735000000
H    -1.608000000     0.520000000    -0.577000000
H    -0.181000000     1.651000000    -0.310000000
H    -0.425000000     0.714000000    -1.820000000
C     1.672000000    -0.454000000    -0.250000000
H     2.103000000    -0.022000000    -1.149000000
C     2.491000000    -1.184000000     0.620000000
H     3.540000000    -1.351000000     0.389000000
C     1.954000000    -1.813000000     1.712000000
C     2.756000000    -2.667000000     2.639000000
O     3.914000000    -2.866000000     2.403000000
O     2.344000000    -3.117000000     3.706000000
