17
-94.02246
C    -0.207000000    -1.746000000     1.916000000
H    -0.705000000    -1.983000000     2.853000000
C    -0.737000000    -0.699000000     1.121000000
H    -1.671000000    -0.208000000     1.383000000
C    -0.086000000    -0.374000000    -0.075000000
C    -0.720000000     0.661000000    -1.017000000
H    -0.265000000     1.653000000    -1.070000000
H    -0.652000000     0.254000000    -2.028000000
H    -1.767000000     0.759000000    -0.722000000
C     1.135000000    -0.949000000    -0.420000000
H     1.610000000    -0.600000000    -1.334000000
C     1.595000000    -1.963000000     0.361000000
H     2.539000000    -2.428000000     0.091000000
C     0.980000000    -2.402000000     1.521000000
C     1.552000000    -3.458000000     2.454000000
O     2.481000000    -4.151000000     2.146000000
O     1.139000000    -3.609000000     3.592000000
