17
-91.90386
C    -0.208000000    -1.177000000     2.452000000
H    -0.471000000    -1.168000000     3.507000000
C    -0.796000000    -0.203000000     1.589000000
H    -1.508000000     0.490000000     2.031000000
C    -0.261000000    -0.037000000     0.308000000
C    -0.914000000     0.891000000    -0.668000000
H    -1.781000000     1.180000000    -0.070000000
H    -0.273000000     1.708000000    -1.006000000
H    -1.167000000     0.387000000    -1.603000000
C     0.826000000    -0.873000000    -0.119000000
H     1.254000000    -0.693000000    -1.102000000
C     1.333000000    -1.871000000     0.699000000
H     2.014000000    -2.617000000     0.299000000
C     0.843000000    -2.023000000     1.949000000
C     1.464000000    -3.089000000     2.808000000
O     2.603000000    -3.465000000     2.575000000
O     0.918000000    -3.529000000     3.814000000
