17
-84.53131
C     0.992000000    -2.120000000     2.922000000
H     0.338000000    -2.260000000     3.778000000
C     0.560000000    -0.960000000     2.260000000
H    -0.396000000    -0.503000000     2.503000000
C     1.188000000    -0.586000000     1.069000000
C     0.737000000     0.619000000     0.334000000
H    -0.172000000     0.926000000     0.855000000
H     1.577000000     1.305000000     0.463000000
H     0.622000000     0.500000000    -0.746000000
C     2.349000000    -1.280000000     0.640000000
H     2.773000000    -1.024000000    -0.327000000
C     2.824000000    -2.375000000     1.378000000
H     3.701000000    -2.871000000     0.969000000
C     2.224000000    -2.750000000     2.604000000
C     2.812000000    -3.952000000     3.311000000
O     3.830000000    -4.496000000     2.929000000
O     2.435000000    -4.321000000     4.394000000
