17
-98.55414
C     0.879000000    -0.812000000     2.184000000
H     0.634000000    -0.990000000     3.228000000
C     0.005000000    -0.130000000     1.340000000
H    -0.943000000     0.155000000     1.791000000
C     0.295000000     0.049000000    -0.031000000
C    -0.825000000     0.605000000    -0.893000000
H    -1.760000000     0.545000000    -0.333000000
H    -0.561000000     1.646000000    -1.089000000
H    -0.968000000     0.070000000    -1.835000000
C     1.481000000    -0.497000000    -0.564000000
H     1.678000000    -0.385000000    -1.627000000
C     2.341000000    -1.177000000     0.309000000
H     3.193000000    -1.675000000    -0.146000000
C     2.053000000    -1.377000000     1.646000000
C     2.980000000    -2.164000000     2.467000000
O     3.869000000    -2.828000000     1.959000000
O     2.926000000    -2.069000000     3.681000000
