17
-96.62113
C     0.734000000    -1.921000000    -1.855000000
H     0.996000000    -2.180000000    -2.878000000
C     0.134000000    -0.701000000    -1.552000000
H    -0.289000000    -0.058000000    -2.320000000
C    -0.055000000    -0.368000000    -0.229000000
C    -0.808000000     0.854000000     0.174000000
H    -1.482000000     1.106000000    -0.648000000
H    -1.384000000     0.720000000     1.092000000
H    -0.051000000     1.630000000     0.305000000
C     0.431000000    -1.197000000     0.792000000
H     0.290000000    -0.915000000     1.832000000
C     1.013000000    -2.445000000     0.493000000
H     1.397000000    -2.967000000     1.366000000
C     1.188000000    -2.790000000    -0.870000000
C     1.826000000    -4.130000000    -1.153000000
O     2.053000000    -4.866000000    -0.230000000
O     2.337000000    -4.329000000    -2.240000000
