17
-86.76362
C     0.003000000    -1.580000000     2.004000000
H    -0.557000000    -2.024000000     2.824000000
C    -0.593000000    -0.616000000     1.233000000
H    -1.526000000    -0.199000000     1.605000000
C     0.007000000    -0.175000000     0.124000000
C    -0.559000000     0.973000000    -0.598000000
H    -0.503000000     0.969000000    -1.689000000
H    -1.632000000     0.969000000    -0.393000000
H    -0.045000000     1.852000000    -0.204000000
C     1.250000000    -0.739000000    -0.224000000
H     1.789000000    -0.234000000    -1.022000000
C     1.766000000    -1.813000000     0.461000000
H     2.712000000    -2.311000000     0.269000000
C     1.135000000    -2.248000000     1.632000000
C     1.792000000    -3.391000000     2.431000000
O     2.998000000    -3.534000000     2.383000000
O     1.203000000    -3.804000000     3.405000000
