17
-92.60539
C     1.077000000    -0.568000000     2.494000000
H     0.864000000    -0.508000000     3.559000000
C     0.101000000    -0.046000000     1.654000000
H    -0.751000000     0.397000000     2.163000000
C     0.215000000    -0.094000000     0.238000000
C    -0.933000000     0.390000000    -0.627000000
H    -1.711000000     0.892000000    -0.047000000
H    -0.562000000     1.125000000    -1.344000000
H    -1.317000000    -0.495000000    -1.140000000
C     1.364000000    -0.644000000    -0.334000000
H     1.490000000    -0.783000000    -1.405000000
C     2.221000000    -1.281000000     0.502000000
H     3.021000000    -1.887000000     0.086000000
C     2.127000000    -1.202000000     1.882000000
C     3.200000000    -1.765000000     2.684000000
O     3.876000000    -2.685000000     2.259000000
O     3.390000000    -1.461000000     3.892000000
