17
-77.54368
C     0.683000000    -0.901000000     2.067000000
H     0.476000000    -1.075000000     3.120000000
C    -0.247000000    -0.225000000     1.270000000
H    -1.184000000     0.108000000     1.709000000
C    -0.005000000     0.074000000    -0.062000000
C    -1.094000000     0.655000000    -1.009000000
H    -2.092000000     0.335000000    -0.704000000
H    -1.073000000     1.738000000    -0.868000000
H    -0.990000000     0.439000000    -2.075000000
C     1.137000000    -0.554000000    -0.658000000
H     1.259000000    -0.560000000    -1.738000000
C     2.136000000    -1.145000000     0.139000000
H     2.968000000    -1.564000000    -0.421000000
C     1.926000000    -1.305000000     1.544000000
C     2.996000000    -1.903000000     2.354000000
O     3.933000000    -2.488000000     1.902000000
O     3.005000000    -1.834000000     3.518000000
