17
-94.40837
C     1.299000000    -2.021000000     2.202000000
H     1.250000000    -2.379000000     3.228000000
C     0.522000000    -0.934000000     1.801000000
H    -0.052000000    -0.437000000     2.579000000
C     0.596000000    -0.456000000     0.491000000
C    -0.310000000     0.637000000     0.007000000
H     0.120000000     1.640000000     0.042000000
H    -0.697000000     0.407000000    -0.989000000
H    -1.191000000     0.610000000     0.652000000
C     1.415000000    -1.149000000    -0.385000000
H     1.655000000    -0.752000000    -1.368000000
C     2.190000000    -2.264000000    -0.057000000
H     2.981000000    -2.618000000    -0.714000000
C     2.178000000    -2.702000000     1.276000000
C     3.199000000    -3.684000000     1.871000000
O     4.105000000    -4.003000000     1.142000000
O     3.304000000    -3.917000000     3.116000000
