17
-98.29940
C     0.783000000    -1.175000000     1.774000000
H     0.763000000    -1.659000000     2.747000000
C    -0.327000000    -0.449000000     1.307000000
H    -1.256000000    -0.363000000     1.865000000
C    -0.279000000     0.060000000    -0.002000000
C    -1.499000000     0.801000000    -0.475000000
H    -1.827000000     1.474000000     0.320000000
H    -1.227000000     1.375000000    -1.364000000
H    -2.268000000     0.042000000    -0.632000000
C     0.805000000    -0.125000000    -0.816000000
H     0.900000000     0.364000000    -1.782000000
C     1.885000000    -0.875000000    -0.389000000
H     2.722000000    -1.174000000    -1.015000000
C     1.860000000    -1.390000000     0.927000000
C     2.988000000    -2.210000000     1.462000000
O     3.852000000    -2.594000000     0.712000000
O     3.113000000    -2.384000000     2.664000000
