17
-90.48092
C     2.344000000    -0.600000000     0.901000000
H     3.375000000    -0.891000000     0.714000000
C     1.491000000    -0.568000000    -0.205000000
H     1.847000000    -0.938000000    -1.163000000
C     0.222000000    -0.052000000    -0.010000000
C    -0.664000000     0.278000000    -1.183000000
H    -1.266000000     1.175000000    -1.025000000
H    -0.080000000     0.420000000    -2.095000000
H    -1.405000000    -0.491000000    -1.410000000
C    -0.101000000     0.563000000     1.246000000
H    -1.124000000     0.882000000     1.430000000
C     0.789000000     0.473000000     2.307000000
H     0.469000000     0.940000000     3.235000000
C     2.013000000    -0.182000000     2.236000000
C     2.945000000    -0.158000000     3.341000000
O     2.557000000     0.224000000     4.449000000
O     3.970000000    -0.802000000     3.244000000
