17
-101.78448
C     1.666000000    -1.719000000     1.601000000
H     1.838000000    -2.030000000     2.629000000
C     0.684000000    -0.797000000     1.288000000
H     0.196000000    -0.331000000     2.140000000
C     0.463000000    -0.428000000    -0.038000000
C    -0.638000000     0.585000000    -0.167000000
H    -1.479000000     0.226000000     0.429000000
H    -0.297000000     1.557000000     0.197000000
H    -1.069000000     0.613000000    -1.170000000
C     1.060000000    -1.130000000    -1.119000000
H     0.873000000    -0.854000000    -2.154000000
C     1.973000000    -2.122000000    -0.822000000
H     2.482000000    -2.639000000    -1.632000000
C     2.331000000    -2.364000000     0.534000000
C     3.296000000    -3.482000000     0.810000000
O     3.915000000    -3.947000000    -0.177000000
O     3.511000000    -3.811000000     2.003000000
