17
-90.62172
C     1.666000000    -2.044000000     0.552000000
H     1.993000000    -2.696000000     1.358000000
C     0.670000000    -1.118000000     0.814000000
H     0.229000000    -1.158000000     1.806000000
C     0.439000000    -0.100000000    -0.108000000
C    -0.624000000     0.971000000     0.011000000
H    -0.106000000     1.884000000     0.309000000
H    -1.242000000     0.997000000    -0.889000000
H    -1.391000000     0.632000000     0.711000000
C     1.157000000    -0.112000000    -1.306000000
H     0.916000000     0.633000000    -2.060000000
C     2.086000000    -1.095000000    -1.570000000
H     2.660000000    -1.042000000    -2.491000000
C     2.426000000    -2.030000000    -0.577000000
C     3.665000000    -2.811000000    -0.783000000
O     4.536000000    -2.579000000    -1.624000000
O     3.937000000    -3.714000000    -0.015000000
