17
-94.51151
C     1.479000000    -1.721000000     0.896000000
H     1.796000000    -2.368000000     1.709000000
C     0.240000000    -1.067000000     0.946000000
H    -0.505000000    -1.288000000     1.707000000
C    -0.112000000    -0.137000000     0.007000000
C    -1.451000000     0.440000000    -0.088000000
H    -2.193000000    -0.175000000     0.427000000
H    -1.479000000     1.447000000     0.334000000
H    -1.760000000     0.405000000    -1.134000000
C     0.759000000     0.180000000    -1.009000000
H     0.388000000     0.802000000    -1.819000000
C     1.882000000    -0.592000000    -1.194000000
H     2.412000000    -0.540000000    -2.142000000
C     2.328000000    -1.468000000    -0.171000000
C     3.638000000    -2.203000000    -0.386000000
O     4.481000000    -1.535000000    -0.982000000
O     3.898000000    -3.273000000     0.098000000
