17
-95.59867
C     1.371000000    -1.755000000     1.454000000
H     1.628000000    -2.304000000     2.357000000
C     0.271000000    -0.863000000     1.462000000
H    -0.405000000    -0.690000000     2.296000000
C    -0.052000000    -0.225000000     0.252000000
C    -1.235000000     0.747000000     0.265000000
H    -0.908000000     1.787000000     0.330000000
H    -1.799000000     0.840000000    -0.666000000
H    -1.925000000     0.486000000     1.069000000
C     0.682000000    -0.440000000    -0.911000000
H     0.434000000     0.189000000    -1.763000000
C     1.792000000    -1.266000000    -0.846000000
H     2.435000000    -1.345000000    -1.719000000
C     2.157000000    -1.933000000     0.327000000
C     3.288000000    -2.939000000     0.282000000
O     4.071000000    -2.869000000    -0.605000000
O     3.567000000    -3.621000000     1.293000000
