17
-89.61937
C     1.751000000    -1.750000000     1.293000000
H     1.915000000    -2.354000000     2.181000000
C     0.595000000    -0.981000000     1.051000000
H    -0.056000000    -0.856000000     1.913000000
C     0.332000000    -0.348000000    -0.184000000
C    -0.966000000     0.476000000    -0.454000000
H    -1.787000000    -0.186000000    -0.169000000
H    -0.864000000     1.388000000     0.137000000
H    -1.153000000     0.657000000    -1.515000000
C     1.378000000    -0.499000000    -1.121000000
H     1.199000000    -0.123000000    -2.125000000
C     2.531000000    -1.295000000    -0.919000000
H     3.249000000    -1.315000000    -1.735000000
C     2.744000000    -1.917000000     0.305000000
C     4.003000000    -2.693000000     0.558000000
O     5.007000000    -2.674000000    -0.124000000
O     4.043000000    -3.148000000     1.660000000
