17
-90.67981
C     1.426000000    -2.274000000     1.103000000
H     1.562000000    -2.777000000     2.057000000
C     0.524000000    -1.251000000     1.032000000
H    -0.090000000    -0.930000000     1.870000000
C     0.300000000    -0.527000000    -0.159000000
C    -0.697000000     0.603000000    -0.375000000
H    -0.260000000     1.503000000     0.062000000
H    -0.909000000     0.719000000    -1.440000000
H    -1.664000000     0.408000000     0.095000000
C     1.243000000    -0.696000000    -1.183000000
H     1.296000000    -0.093000000    -2.085000000
C     2.170000000    -1.716000000    -1.067000000
H     2.907000000    -1.859000000    -1.852000000
C     2.248000000    -2.568000000     0.036000000
C     3.369000000    -3.504000000     0.281000000
O     4.093000000    -3.840000000    -0.624000000
O     3.790000000    -3.691000000     1.420000000
