17
-97.07239
C     1.499000000    -2.347000000     0.932000000
H     1.612000000    -3.013000000     1.783000000
C     0.409000000    -1.468000000     0.964000000
H    -0.175000000    -1.292000000     1.864000000
C     0.285000000    -0.513000000    -0.116000000
C    -0.726000000     0.599000000    -0.088000000
H    -0.151000000     1.523000000     0.002000000
H    -1.316000000     0.600000000    -1.006000000
H    -1.466000000     0.420000000     0.695000000
C     1.194000000    -0.546000000    -1.163000000
H     1.117000000     0.219000000    -1.932000000
C     2.198000000    -1.488000000    -1.233000000
H     2.944000000    -1.462000000    -2.023000000
C     2.367000000    -2.418000000    -0.205000000
C     3.492000000    -3.357000000    -0.153000000
O     4.255000000    -3.522000000    -1.130000000
O     3.737000000    -3.991000000     0.856000000
