17
-97.54693
C     1.235000000    -1.950000000     2.233000000
H     1.287000000    -2.369000000     3.235000000
C     0.364000000    -0.929000000     1.837000000
H    -0.344000000    -0.487000000     2.534000000
C     0.384000000    -0.460000000     0.502000000
C    -0.546000000     0.602000000     0.025000000
H    -0.123000000     1.584000000     0.249000000
H    -0.678000000     0.581000000    -1.059000000
H    -1.499000000     0.611000000     0.558000000
C     1.250000000    -1.034000000    -0.415000000
H     1.286000000    -0.754000000    -1.465000000
C     2.146000000    -2.040000000    -0.063000000
H     2.841000000    -2.458000000    -0.787000000
C     2.138000000    -2.530000000     1.297000000
C     3.145000000    -3.599000000     1.692000000
O     4.214000000    -3.541000000     1.100000000
O     3.056000000    -4.261000000     2.693000000
