17
-85.51259
C     1.296000000    -1.662000000     2.105000000
H     1.183000000    -2.045000000     3.116000000
C     0.300000000    -0.844000000     1.647000000
H    -0.473000000    -0.708000000     2.399000000
C     0.251000000    -0.345000000     0.353000000
C    -0.997000000     0.339000000    -0.120000000
H    -0.754000000     1.380000000    -0.345000000
H    -1.523000000    -0.228000000    -0.891000000
H    -1.643000000     0.424000000     0.756000000
C     1.251000000    -0.790000000    -0.542000000
H     1.177000000    -0.553000000    -1.600000000
C     2.215000000    -1.644000000    -0.065000000
H     2.889000000    -2.045000000    -0.818000000
C     2.242000000    -2.114000000     1.264000000
C     3.294000000    -3.104000000     1.708000000
O     4.335000000    -3.107000000     1.118000000
O     3.265000000    -3.626000000     2.793000000
