17
-90.27551
C     0.722000000    -1.963000000    -1.515000000
H     0.824000000    -2.471000000    -2.471000000
C    -0.026000000    -0.741000000    -1.381000000
H    -0.426000000    -0.338000000    -2.308000000
C    -0.324000000    -0.202000000    -0.119000000
C    -1.197000000     0.983000000    -0.049000000
H    -1.157000000     1.364000000     0.974000000
H    -0.846000000     1.820000000    -0.657000000
H    -2.205000000     0.685000000    -0.347000000
C     0.299000000    -0.768000000     0.961000000
H     0.225000000    -0.278000000     1.928000000
C     0.950000000    -1.926000000     0.934000000
H     1.443000000    -2.390000000     1.784000000
C     1.184000000    -2.560000000    -0.348000000
C     1.934000000    -3.869000000    -0.485000000
O     2.442000000    -4.359000000     0.470000000
O     2.165000000    -4.363000000    -1.581000000
