17
-90.38990
C     0.678000000    -1.533000000     1.466000000
H     0.381000000    -1.903000000     2.444000000
C    -0.142000000    -0.566000000     0.854000000
H    -1.093000000    -0.371000000     1.343000000
C     0.169000000     0.018000000    -0.369000000
C    -0.856000000     0.945000000    -1.004000000
H    -0.743000000     1.807000000    -0.343000000
H    -0.621000000     1.528000000    -1.896000000
H    -1.866000000     0.534000000    -1.050000000
C     1.325000000    -0.426000000    -1.046000000
H     1.439000000     0.046000000    -2.019000000
C     2.210000000    -1.326000000    -0.431000000
H     3.127000000    -1.571000000    -0.961000000
C     1.816000000    -1.985000000     0.810000000
C     2.746000000    -2.993000000     1.493000000
O     3.638000000    -3.521000000     0.890000000
O     2.598000000    -3.241000000     2.684000000
