17
-97.61256
C     0.039000000    -2.389000000     1.282000000
H    -0.061000000    -3.022000000     2.159000000
C    -0.470000000    -1.087000000     1.213000000
H    -1.135000000    -0.745000000     2.002000000
C    -0.097000000    -0.260000000     0.117000000
C    -0.724000000     1.069000000    -0.081000000
H    -1.389000000     0.996000000    -0.944000000
H    -1.411000000     1.294000000     0.737000000
H     0.077000000     1.812000000    -0.071000000
C     0.833000000    -0.722000000    -0.783000000
H     1.101000000    -0.118000000    -1.646000000
C     1.383000000    -2.050000000    -0.617000000
H     2.235000000    -2.300000000    -1.244000000
C     1.069000000    -2.833000000     0.423000000
C     1.702000000    -4.247000000     0.570000000
O     2.682000000    -4.596000000    -0.145000000
O     1.277000000    -5.002000000     1.451000000
