17
-94.61031
C     0.239000000    -1.811000000     1.722000000
H    -0.187000000    -2.396000000     2.533000000
C    -0.608000000    -0.792000000     1.240000000
H    -1.498000000    -0.486000000     1.784000000
C    -0.217000000    -0.138000000     0.114000000
C    -0.957000000     1.034000000    -0.421000000
H    -0.285000000     1.893000000    -0.361000000
H    -1.158000000     0.932000000    -1.490000000
H    -1.849000000     1.325000000     0.139000000
C     0.913000000    -0.527000000    -0.561000000
H     1.136000000     0.148000000    -1.383000000
C     1.771000000    -1.527000000    -0.092000000
H     2.645000000    -1.785000000    -0.685000000
C     1.393000000    -2.207000000     1.037000000
C     2.236000000    -3.328000000     1.554000000
O     3.238000000    -3.649000000     0.946000000
O     1.842000000    -4.001000000     2.480000000
