17
-98.89316
C     0.574000000    -1.657000000     1.800000000
H     0.295000000    -2.157000000     2.724000000
C    -0.274000000    -0.678000000     1.298000000
H    -1.112000000    -0.426000000     1.943000000
C    -0.060000000    -0.082000000     0.078000000
C    -1.151000000     0.877000000    -0.402000000
H    -1.944000000     1.124000000     0.308000000
H    -0.589000000     1.775000000    -0.668000000
H    -1.612000000     0.380000000    -1.258000000
C     1.117000000    -0.324000000    -0.666000000
H     1.370000000     0.226000000    -1.568000000
C     2.006000000    -1.280000000    -0.104000000
H     2.950000000    -1.418000000    -0.626000000
C     1.738000000    -1.952000000     1.110000000
C     2.665000000    -2.956000000     1.640000000
O     3.581000000    -3.266000000     0.930000000
O     2.400000000    -3.451000000     2.769000000
