17
-93.62206
C    -0.104000000    -1.948000000     2.214000000
H    -0.385000000    -2.127000000     3.249000000
C    -0.482000000    -0.776000000     1.593000000
H    -1.175000000    -0.121000000     2.114000000
C    -0.134000000    -0.562000000     0.276000000
C    -0.562000000     0.718000000    -0.413000000
H    -1.651000000     0.786000000    -0.365000000
H    -0.240000000     1.666000000     0.024000000
H    -0.231000000     0.706000000    -1.453000000
C     0.693000000    -1.424000000    -0.466000000
H     0.930000000    -1.219000000    -1.506000000
C     1.182000000    -2.548000000     0.228000000
H     1.723000000    -3.287000000    -0.357000000
C     0.805000000    -2.790000000     1.532000000
C     1.326000000    -4.051000000     2.146000000
O     2.257000000    -4.633000000     1.656000000
O     0.965000000    -4.371000000     3.253000000
