17
-95.83651
C     0.377000000    -1.575000000     1.892000000
H     0.178000000    -1.691000000     2.954000000
C    -0.051000000    -0.383000000     1.300000000
H    -0.572000000     0.395000000     1.852000000
C     0.177000000    -0.181000000    -0.031000000
C    -0.548000000     0.994000000    -0.755000000
H    -1.603000000     0.713000000    -0.776000000
H    -0.300000000     1.919000000    -0.231000000
H    -0.137000000     1.065000000    -1.764000000
C     0.871000000    -1.145000000    -0.752000000
H     0.919000000    -1.101000000    -1.837000000
C     1.364000000    -2.316000000    -0.106000000
H     1.896000000    -3.049000000    -0.707000000
C     1.128000000    -2.536000000     1.227000000
C     1.605000000    -3.765000000     1.930000000
O     2.263000000    -4.620000000     1.407000000
O     1.281000000    -3.900000000     3.108000000
