17
-95.74384
C     1.694000000    -0.658000000     1.976000000
H     2.707000000    -0.376000000     2.253000000
C     1.161000000    -0.050000000     0.864000000
H     1.676000000     0.743000000     0.327000000
C    -0.104000000    -0.394000000     0.382000000
C    -0.867000000     0.484000000    -0.589000000
H    -0.284000000     0.438000000    -1.511000000
H    -1.919000000     0.234000000    -0.743000000
H    -0.952000000     1.541000000    -0.328000000
C    -0.801000000    -1.382000000     1.004000000
H    -1.822000000    -1.581000000     0.688000000
C    -0.245000000    -2.075000000     2.145000000
H    -0.738000000    -2.980000000     2.488000000
C     1.027000000    -1.679000000     2.638000000
C     1.583000000    -2.376000000     3.794000000
O     1.008000000    -3.359000000     4.246000000
O     2.669000000    -1.989000000     4.218000000
