17
-93.93230
C     1.688000000    -0.508000000     2.140000000
H     2.492000000    -0.004000000     2.671000000
C     1.007000000     0.099000000     1.058000000
H     1.392000000     1.040000000     0.674000000
C    -0.079000000    -0.522000000     0.514000000
C    -0.776000000     0.185000000    -0.518000000
H    -0.924000000     1.183000000    -0.100000000
H    -0.158000000     0.411000000    -1.389000000
H    -1.752000000    -0.207000000    -0.811000000
C    -0.574000000    -1.761000000     0.906000000
H    -1.472000000    -2.207000000     0.485000000
C     0.133000000    -2.432000000     1.868000000
H    -0.276000000    -3.348000000     2.287000000
C     1.241000000    -1.771000000     2.511000000
C     2.056000000    -2.500000000     3.563000000
O     1.614000000    -3.464000000     4.193000000
O     3.286000000    -2.241000000     3.643000000
