17
-95.08046
C     0.051000000    -1.629000000     2.135000000
H    -0.408000000    -1.864000000     3.093000000
C    -0.597000000    -0.711000000     1.355000000
H    -1.498000000    -0.224000000     1.719000000
C    -0.123000000    -0.408000000     0.052000000
C    -0.977000000     0.570000000    -0.723000000
H    -1.136000000     0.200000000    -1.738000000
H    -1.938000000     0.845000000    -0.285000000
H    -0.394000000     1.486000000    -0.834000000
C     1.025000000    -0.910000000    -0.419000000
H     1.375000000    -0.669000000    -1.419000000
C     1.731000000    -1.797000000     0.384000000
H     2.612000000    -2.241000000    -0.073000000
C     1.251000000    -2.176000000     1.671000000
C     2.024000000    -3.155000000     2.509000000
O     2.757000000    -3.928000000     1.998000000
O     1.703000000    -3.257000000     3.703000000
