17
-85.82981
C     0.734000000    -1.298000000     2.995000000
H     0.984000000    -0.936000000     3.989000000
C     0.354000000    -0.396000000     2.038000000
H     0.204000000     0.639000000     2.335000000
C     0.027000000    -0.799000000     0.763000000
C    -0.547000000     0.232000000    -0.235000000
H     0.229000000     0.405000000    -0.983000000
H    -1.420000000    -0.193000000    -0.734000000
H    -0.805000000     1.219000000     0.156000000
C     0.203000000    -2.095000000     0.416000000
H     0.003000000    -2.364000000    -0.618000000
C     0.506000000    -3.094000000     1.426000000
H     0.586000000    -4.151000000     1.185000000
C     0.761000000    -2.663000000     2.742000000
C     0.939000000    -3.743000000     3.780000000
O     1.335000000    -4.782000000     3.348000000
O     1.165000000    -3.524000000     4.972000000
