17
-96.21704
C     1.333000000    -2.979000000    -1.405000000
H     0.988000000    -3.699000000    -2.143000000
C     0.742000000    -1.741000000    -1.394000000
H    -0.032000000    -1.598000000    -2.144000000
C     1.085000000    -0.712000000    -0.442000000
C     0.329000000     0.626000000    -0.385000000
H     1.042000000     1.381000000    -0.725000000
H    -0.624000000     0.659000000    -0.917000000
H     0.106000000     0.722000000     0.679000000
C     2.123000000    -1.047000000     0.462000000
H     2.453000000    -0.262000000     1.138000000
C     2.679000000    -2.332000000     0.542000000
H     3.453000000    -2.618000000     1.250000000
C     2.191000000    -3.348000000    -0.352000000
C     2.802000000    -4.756000000    -0.409000000
O     3.562000000    -5.074000000     0.467000000
O     2.477000000    -5.559000000    -1.302000000
