17
-88.45223
C     1.818000000    -2.033000000    -0.171000000
H     2.258000000    -2.755000000    -0.854000000
C     1.147000000    -0.973000000    -0.866000000
H     1.234000000    -0.882000000    -1.946000000
C     0.344000000    -0.175000000    -0.136000000
C    -0.384000000     0.996000000    -0.759000000
H    -1.460000000     0.847000000    -0.640000000
H    -0.145000000     1.919000000    -0.227000000
H    -0.214000000     1.129000000    -1.829000000
C     0.210000000    -0.394000000     1.248000000
H    -0.283000000     0.383000000     1.826000000
C     0.746000000    -1.486000000     1.884000000
H     0.694000000    -1.515000000     2.970000000
C     1.530000000    -2.382000000     1.208000000
C     2.220000000    -3.541000000     1.807000000
O     1.937000000    -3.741000000     2.965000000
O     3.209000000    -4.111000000     1.317000000
