17
-89.20393
C     1.185000000    -2.571000000    -0.148000000
H     1.567000000    -3.446000000    -0.668000000
C     0.685000000    -1.462000000    -0.849000000
H     0.657000000    -1.431000000    -1.935000000
C     0.098000000    -0.426000000    -0.111000000
C    -0.534000000     0.741000000    -0.760000000
H    -0.763000000     0.495000000    -1.799000000
H    -1.486000000     1.049000000    -0.324000000
H     0.165000000     1.579000000    -0.807000000
C     0.010000000    -0.544000000     1.282000000
H    -0.409000000     0.336000000     1.764000000
C     0.455000000    -1.623000000     2.007000000
H     0.374000000    -1.699000000     3.088000000
C     1.007000000    -2.667000000     1.226000000
C     1.451000000    -3.864000000     1.978000000
O     1.432000000    -3.973000000     3.150000000
O     2.004000000    -4.716000000     1.339000000
