17
-96.58011
C     1.941000000    -1.519000000     0.343000000
H     2.802000000    -2.008000000    -0.104000000
C     1.028000000    -0.826000000    -0.500000000
H     1.181000000    -0.959000000    -1.568000000
C    -0.057000000    -0.120000000     0.042000000
C    -0.982000000     0.673000000    -0.827000000
H    -1.938000000     0.247000000    -0.516000000
H    -0.853000000     1.749000000    -0.686000000
H    -0.790000000     0.387000000    -1.863000000
C    -0.251000000    -0.120000000     1.403000000
H    -1.091000000     0.508000000     1.688000000
C     0.609000000    -0.838000000     2.282000000
H     0.583000000    -0.848000000     3.368000000
C     1.637000000    -1.568000000     1.739000000
C     2.682000000    -2.196000000     2.693000000
O     2.610000000    -2.044000000     3.906000000
O     3.510000000    -2.946000000     2.177000000
