17
-88.37472
C     2.179000000    -1.373000000    -0.397000000
H     2.801000000    -1.979000000    -1.051000000
C     1.213000000    -0.563000000    -0.986000000
H     1.171000000    -0.429000000    -2.064000000
C     0.318000000     0.075000000    -0.151000000
C    -0.814000000     0.900000000    -0.661000000
H    -1.415000000     1.263000000     0.175000000
H    -0.530000000     1.703000000    -1.344000000
H    -1.377000000     0.192000000    -1.273000000
C     0.431000000    -0.065000000     1.223000000
H    -0.263000000     0.434000000     1.895000000
C     1.472000000    -0.836000000     1.772000000
H     1.563000000    -0.943000000     2.850000000
C     2.289000000    -1.626000000     0.999000000
C     3.294000000    -2.680000000     1.486000000
O     3.590000000    -2.759000000     2.630000000
O     3.777000000    -3.502000000     0.763000000
