17
-92.50448
C     2.658000000    -1.126000000     0.042000000
H     3.317000000    -1.574000000    -0.698000000
C     1.480000000    -0.566000000    -0.462000000
H     1.302000000    -0.691000000    -1.527000000
C     0.595000000     0.096000000     0.378000000
C    -0.746000000     0.490000000    -0.108000000
H    -1.233000000    -0.432000000    -0.435000000
H    -1.385000000     0.986000000     0.626000000
H    -0.721000000     1.113000000    -1.004000000
C     0.813000000     0.121000000     1.713000000
H     0.169000000     0.535000000     2.485000000
C     2.018000000    -0.390000000     2.191000000
H     2.299000000    -0.246000000     3.231000000
C     2.894000000    -1.130000000     1.394000000
C     4.162000000    -1.628000000     1.966000000
O     4.447000000    -1.181000000     3.077000000
O     4.624000000    -2.636000000     1.506000000
