17
-94.54495
C     2.292000000    -1.842000000    -0.140000000
H     3.021000000    -2.405000000    -0.717000000
C     1.242000000    -1.121000000    -0.740000000
H     1.065000000    -1.196000000    -1.810000000
C     0.393000000    -0.327000000     0.119000000
C    -0.666000000     0.529000000    -0.497000000
H    -0.353000000     1.573000000    -0.562000000
H    -0.715000000     0.334000000    -1.570000000
H    -1.620000000     0.376000000     0.011000000
C     0.623000000    -0.206000000     1.529000000
H    -0.009000000     0.382000000     2.190000000
C     1.612000000    -1.039000000     2.032000000
H     1.601000000    -1.174000000     3.111000000
C     2.517000000    -1.760000000     1.225000000
C     3.604000000    -2.542000000     1.848000000
O     3.933000000    -2.322000000     2.985000000
O     4.062000000    -3.464000000     1.207000000
