17
-94.03447
C     2.477000000    -1.465000000     0.522000000
H     3.355000000    -1.968000000     0.123000000
C     1.620000000    -0.803000000    -0.392000000
H     1.910000000    -0.806000000    -1.440000000
C     0.537000000    -0.037000000     0.107000000
C    -0.444000000     0.561000000    -0.882000000
H    -1.497000000     0.414000000    -0.633000000
H    -0.153000000     1.595000000    -1.079000000
H    -0.264000000     0.050000000    -1.830000000
C     0.162000000    -0.026000000     1.439000000
H    -0.779000000     0.376000000     1.805000000
C     0.960000000    -0.810000000     2.311000000
H     0.805000000    -0.856000000     3.386000000
C     2.162000000    -1.384000000     1.820000000
C     3.119000000    -1.958000000     2.839000000
O     2.893000000    -1.676000000     3.993000000
O     4.143000000    -2.530000000     2.507000000
