17
-94.93228
C     1.143000000    -2.034000000     0.495000000
H     1.660000000    -2.851000000    -0.002000000
C     0.616000000    -0.974000000    -0.306000000
H     0.655000000    -1.047000000    -1.390000000
C    -0.025000000     0.095000000     0.295000000
C    -0.708000000     1.197000000    -0.554000000
H    -1.715000000     0.811000000    -0.726000000
H    -0.765000000     2.191000000    -0.105000000
H    -0.227000000     1.225000000    -1.534000000
C    -0.091000000     0.197000000     1.644000000
H    -0.615000000     1.071000000     2.021000000
C     0.445000000    -0.810000000     2.446000000
H     0.272000000    -0.720000000     3.515000000
C     1.054000000    -1.965000000     1.897000000
C     1.535000000    -3.059000000     2.781000000
O     1.484000000    -3.003000000     3.989000000
O     2.114000000    -3.966000000     2.244000000
