17
-89.73912
C     2.239000000    -1.708000000     0.209000000
H     2.864000000    -2.489000000    -0.217000000
C     1.344000000    -0.989000000    -0.562000000
H     1.110000000    -1.403000000    -1.540000000
C     0.635000000     0.120000000    -0.059000000
C    -0.378000000     0.809000000    -0.867000000
H    -1.291000000     0.269000000    -0.609000000
H    -0.400000000     1.891000000    -0.723000000
H    -0.334000000     0.591000000    -1.937000000
C     0.745000000     0.400000000     1.298000000
H     0.027000000     1.131000000     1.660000000
C     1.605000000    -0.373000000     2.065000000
H     1.608000000    -0.257000000     3.146000000
C     2.338000000    -1.393000000     1.587000000
C     3.330000000    -2.035000000     2.461000000
O     3.409000000    -1.641000000     3.647000000
O     3.719000000    -3.152000000     2.167000000
