17
-92.60607
C     1.226000000    -2.223000000     0.307000000
H     1.896000000    -2.924000000    -0.184000000
C     0.894000000    -1.093000000    -0.394000000
H     1.340000000    -0.895000000    -1.366000000
C    -0.060000000    -0.222000000     0.057000000
C    -0.320000000     1.147000000    -0.697000000
H     0.571000000     1.677000000    -0.353000000
H    -0.267000000     1.135000000    -1.788000000
H    -1.160000000     1.622000000    -0.185000000
C    -0.597000000    -0.391000000     1.344000000
H    -1.299000000     0.360000000     1.698000000
C    -0.301000000    -1.581000000     2.072000000
H    -0.798000000    -1.828000000     3.007000000
C     0.613000000    -2.509000000     1.578000000
C     0.970000000    -3.802000000     2.264000000
O     0.496000000    -3.928000000     3.413000000
O     1.880000000    -4.415000000     1.784000000
