17
-92.56814
C     0.557000000    -3.216000000    -1.399000000
H     0.369000000    -3.748000000    -2.328000000
C    -0.019000000    -1.954000000    -1.127000000
H    -0.657000000    -1.482000000    -1.870000000
C     0.210000000    -1.305000000     0.104000000
C    -0.269000000     0.114000000     0.325000000
H    -1.353000000     0.097000000     0.196000000
H    -0.085000000     0.495000000     1.331000000
H     0.151000000     0.783000000    -0.428000000
C     0.921000000    -1.978000000     1.082000000
H     1.043000000    -1.480000000     2.041000000
C     1.512000000    -3.209000000     0.839000000
H     1.968000000    -3.801000000     1.628000000
C     1.304000000    -3.868000000    -0.379000000
C     1.968000000    -5.292000000    -0.609000000
O     2.976000000    -5.612000000     0.063000000
O     1.776000000    -5.909000000    -1.595000000
