17
-96.79730
C     1.656000000    -2.861000000     1.211000000
H     1.854000000    -3.860000000     0.830000000
C     0.967000000    -1.991000000     0.324000000
H     0.828000000    -2.289000000    -0.712000000
C     0.475000000    -0.773000000     0.807000000
C    -0.280000000     0.105000000    -0.143000000
H    -1.085000000     0.737000000     0.241000000
H     0.408000000     0.791000000    -0.640000000
H    -0.653000000    -0.508000000    -0.966000000
C     0.797000000    -0.388000000     2.129000000
H     0.541000000     0.627000000     2.419000000
C     1.384000000    -1.286000000     2.984000000
H     1.401000000    -1.031000000     4.041000000
C     1.811000000    -2.539000000     2.565000000
C     2.667000000    -3.342000000     3.480000000
O     2.665000000    -3.149000000     4.667000000
O     3.288000000    -4.291000000     2.999000000
