17
-96.03596
C     0.059000000    -3.128000000     1.037000000
H    -0.201000000    -4.134000000     0.719000000
C    -0.472000000    -2.115000000     0.273000000
H    -0.769000000    -2.227000000    -0.766000000
C    -0.369000000    -0.853000000     0.800000000
C    -0.826000000     0.277000000    -0.133000000
H    -1.302000000     1.027000000     0.502000000
H     0.065000000     0.711000000    -0.592000000
H    -1.597000000    -0.106000000    -0.804000000
C     0.174000000    -0.582000000     2.050000000
H     0.248000000     0.384000000     2.542000000
C     0.560000000    -1.645000000     2.865000000
H     1.038000000    -1.511000000     3.832000000
C     0.592000000    -2.940000000     2.322000000
C     1.172000000    -4.052000000     3.164000000
O     1.338000000    -3.763000000     4.327000000
O     1.414000000    -5.092000000     2.589000000
