17
-90.37914
C     1.565000000    -2.168000000     1.158000000
H     2.156000000    -3.028000000     0.853000000
C     1.108000000    -1.378000000     0.100000000
H     1.172000000    -1.576000000    -0.967000000
C     0.507000000    -0.188000000     0.452000000
C    -0.047000000     0.813000000    -0.608000000
H    -0.856000000     1.449000000    -0.241000000
H     0.691000000     1.560000000    -0.909000000
H    -0.499000000     0.350000000    -1.487000000
C     0.438000000     0.198000000     1.820000000
H     0.055000000     1.176000000     2.101000000
C     0.818000000    -0.584000000     2.881000000
H     0.892000000    -0.264000000     3.917000000
C     1.491000000    -1.771000000     2.545000000
C     1.963000000    -2.675000000     3.654000000
O     1.969000000    -2.324000000     4.808000000
O     2.339000000    -3.801000000     3.388000000
