17
-92.96944
C     1.057000000    -2.972000000    -0.605000000
H     1.273000000    -3.661000000    -1.417000000
C     0.380000000    -1.818000000    -0.831000000
H     0.077000000    -1.674000000    -1.865000000
C     0.171000000    -0.888000000     0.183000000
C    -0.522000000     0.399000000    -0.075000000
H    -0.817000000     0.410000000    -1.126000000
H    -1.455000000     0.581000000     0.462000000
H     0.108000000     1.259000000     0.164000000
C     0.497000000    -1.284000000     1.438000000
H     0.305000000    -0.586000000     2.249000000
C     1.052000000    -2.567000000     1.760000000
H     1.252000000    -2.871000000     2.785000000
C     1.285000000    -3.453000000     0.688000000
C     1.991000000    -4.786000000     0.904000000
O     1.905000000    -5.274000000     2.007000000
O     2.472000000    -5.331000000    -0.023000000
