17
-91.69586
C     2.196000000    -1.570000000    -0.789000000
H     3.187000000    -1.563000000    -1.236000000
C     1.488000000    -0.389000000    -0.827000000
H     1.891000000     0.494000000    -1.316000000
C     0.261000000    -0.337000000    -0.176000000
C    -0.582000000     0.877000000    -0.072000000
H    -0.514000000     1.522000000    -0.950000000
H    -1.649000000     0.660000000     0.016000000
H    -0.218000000     1.361000000     0.837000000
C    -0.184000000    -1.450000000     0.585000000
H    -1.091000000    -1.412000000     1.184000000
C     0.601000000    -2.607000000     0.690000000
H     0.363000000    -3.486000000     1.284000000
C     1.795000000    -2.676000000    -0.032000000
C     2.720000000    -3.885000000     0.210000000
O     2.471000000    -4.562000000     1.156000000
O     3.732000000    -4.047000000    -0.377000000
