17
-87.63377
C     0.899000000    -3.211000000     0.877000000
H     0.804000000    -4.196000000     0.428000000
C     0.130000000    -2.235000000     0.258000000
H    -0.526000000    -2.486000000    -0.571000000
C     0.130000000    -0.883000000     0.681000000
C    -0.712000000     0.126000000    -0.058000000
H    -0.555000000     0.087000000    -1.138000000
H    -1.778000000    -0.011000000     0.133000000
H    -0.509000000     1.135000000     0.307000000
C     0.915000000    -0.542000000     1.773000000
H     0.917000000     0.428000000     2.264000000
C     1.801000000    -1.515000000     2.361000000
H     2.589000000    -1.156000000     3.018000000
C     1.795000000    -2.890000000     1.894000000
C     2.728000000    -3.902000000     2.431000000
O     3.402000000    -3.743000000     3.396000000
O     2.891000000    -5.040000000     1.932000000
