17
-91.81650
C     1.199000000    -3.599000000    -0.889000000
H     1.389000000    -4.307000000    -1.691000000
C     0.793000000    -2.296000000    -1.197000000
H     0.721000000    -2.012000000    -2.244000000
C     0.374000000    -1.386000000    -0.206000000
C    -0.305000000    -0.030000000    -0.485000000
H    -0.279000000     0.276000000    -1.533000000
H    -1.361000000    -0.193000000    -0.262000000
H     0.098000000     0.782000000     0.124000000
C     0.341000000    -1.821000000     1.084000000
H    -0.081000000    -1.097000000     1.776000000
C     0.933000000    -3.039000000     1.448000000
H     0.856000000    -3.388000000     2.475000000
C     1.322000000    -3.904000000     0.491000000
C     1.672000000    -5.282000000     0.911000000
O     1.377000000    -5.650000000     2.018000000
O     2.232000000    -6.072000000     0.158000000
