17
-94.70533
C     2.048000000    -1.852000000    -0.516000000
H     3.000000000    -1.810000000    -1.039000000
C     1.367000000    -0.632000000    -0.379000000
H     1.629000000     0.277000000    -0.914000000
C     0.144000000    -0.563000000     0.268000000
C    -0.772000000     0.665000000     0.175000000
H    -1.782000000     0.250000000     0.156000000
H    -0.676000000     1.426000000     0.952000000
H    -0.624000000     1.304000000    -0.698000000
C    -0.422000000    -1.735000000     0.787000000
H    -1.362000000    -1.661000000     1.327000000
C     0.294000000    -2.920000000     0.692000000
H    -0.151000000    -3.847000000     1.045000000
C     1.570000000    -3.019000000     0.067000000
C     2.453000000    -4.212000000    -0.015000000
O     2.106000000    -5.221000000     0.519000000
O     3.607000000    -4.070000000    -0.473000000
