17
-81.89135
C     2.109000000    -2.158000000    -0.880000000
H     2.963000000    -2.086000000    -1.548000000
C     1.356000000    -1.066000000    -1.040000000
H     1.777000000    -0.243000000    -1.612000000
C     0.193000000    -0.874000000    -0.295000000
C    -0.604000000     0.381000000    -0.361000000
H    -0.430000000     0.956000000     0.551000000
H    -0.660000000     0.957000000    -1.287000000
H    -1.621000000     0.101000000    -0.078000000
C    -0.247000000    -1.896000000     0.493000000
H    -1.138000000    -1.819000000     1.110000000
C     0.494000000    -3.058000000     0.560000000
H     0.183000000    -3.810000000     1.281000000
C     1.678000000    -3.222000000    -0.092000000
C     2.428000000    -4.484000000     0.003000000
O     2.187000000    -5.330000000     0.860000000
O     3.434000000    -4.692000000    -0.638000000
