17
-95.01513
C     2.208000000    -1.267000000     0.437000000
H     3.258000000    -1.379000000     0.182000000
C     1.503000000    -0.194000000    -0.101000000
H     2.067000000     0.447000000    -0.775000000
C     0.129000000     0.025000000     0.251000000
C    -0.613000000     1.135000000    -0.300000000
H    -1.256000000     0.773000000    -1.105000000
H    -1.342000000     1.497000000     0.428000000
H     0.089000000     1.837000000    -0.754000000
C    -0.571000000    -0.851000000     1.141000000
H    -1.608000000    -0.703000000     1.432000000
C     0.101000000    -2.022000000     1.568000000
H    -0.418000000    -2.726000000     2.214000000
C     1.495000000    -2.203000000     1.265000000
C     2.191000000    -3.448000000     1.823000000
O     1.550000000    -4.363000000     2.289000000
O     3.385000000    -3.594000000     1.469000000
