17
-94.81763
C     2.030000000    -2.273000000     0.370000000
H     2.634000000    -2.927000000    -0.254000000
C     1.075000000    -1.362000000    -0.193000000
H     0.877000000    -1.376000000    -1.261000000
C     0.469000000    -0.417000000     0.659000000
C    -0.438000000     0.636000000     0.049000000
H    -0.190000000     1.622000000     0.447000000
H    -0.553000000     0.685000000    -1.036000000
H    -1.470000000     0.391000000     0.307000000
C     0.775000000    -0.479000000     2.047000000
H     0.318000000     0.177000000     2.784000000
C     1.641000000    -1.390000000     2.560000000
H     1.765000000    -1.381000000     3.640000000
C     2.293000000    -2.320000000     1.762000000
C     3.330000000    -3.373000000     2.215000000
O     3.327000000    -3.845000000     3.309000000
O     4.240000000    -3.727000000     1.433000000
