17
-91.90298
C     2.700000000    -0.637000000     0.210000000
H     3.736000000    -0.475000000    -0.077000000
C     1.771000000     0.199000000    -0.323000000
H     2.075000000     0.854000000    -1.136000000
C     0.421000000     0.116000000     0.043000000
C    -0.595000000     1.075000000    -0.478000000
H    -1.306000000     1.418000000     0.277000000
H    -0.176000000     1.994000000    -0.893000000
H    -1.228000000     0.636000000    -1.252000000
C     0.060000000    -0.785000000     1.017000000
H    -0.999000000    -0.892000000     1.240000000
C     1.039000000    -1.609000000     1.626000000
H     0.730000000    -2.227000000     2.465000000
C     2.372000000    -1.537000000     1.239000000
C     3.397000000    -2.422000000     1.973000000
O     3.107000000    -3.433000000     2.589000000
O     4.587000000    -2.266000000     1.851000000
