17
-91.13839
C     1.986000000    -1.378000000    -0.297000000
H     2.897000000    -1.759000000    -0.754000000
C     1.322000000    -0.196000000    -0.747000000
H     1.819000000     0.452000000    -1.466000000
C     0.108000000     0.154000000    -0.207000000
C    -0.629000000     1.352000000    -0.691000000
H    -0.533000000     1.619000000    -1.746000000
H    -1.675000000     1.336000000    -0.377000000
H    -0.150000000     2.119000000    -0.079000000
C    -0.517000000    -0.633000000     0.713000000
H    -1.513000000    -0.338000000     1.035000000
C     0.128000000    -1.818000000     1.176000000
H    -0.393000000    -2.561000000     1.775000000
C     1.367000000    -2.183000000     0.635000000
C     2.032000000    -3.468000000     0.950000000
O     1.648000000    -4.149000000     1.897000000
O     2.924000000    -3.796000000     0.264000000
