17
-96.29966
C     1.856000000    -1.479000000     0.365000000
H     2.852000000    -1.806000000     0.080000000
C     1.248000000    -0.350000000    -0.217000000
H     1.700000000     0.127000000    -1.083000000
C    -0.006000000     0.014000000     0.312000000
C    -0.672000000     1.246000000    -0.250000000
H    -0.470000000     2.129000000     0.359000000
H    -0.321000000     1.489000000    -1.255000000
H    -1.762000000     1.202000000    -0.304000000
C    -0.537000000    -0.618000000     1.409000000
H    -1.434000000    -0.197000000     1.855000000
C     0.075000000    -1.798000000     1.946000000
H    -0.429000000    -2.338000000     2.743000000
C     1.278000000    -2.198000000     1.407000000
C     1.919000000    -3.423000000     2.021000000
O     1.552000000    -3.910000000     3.062000000
O     2.829000000    -3.969000000     1.447000000
