17
-98.06090
C     2.592000000    -0.979000000    -0.072000000
H     3.456000000    -0.911000000    -0.728000000
C     1.577000000    -0.111000000    -0.380000000
H     1.640000000     0.555000000    -1.237000000
C     0.422000000    -0.026000000     0.377000000
C    -0.651000000     0.991000000     0.077000000
H    -1.475000000     1.032000000     0.794000000
H    -0.166000000     1.968000000     0.101000000
H    -1.086000000     0.855000000    -0.915000000
C     0.229000000    -0.873000000     1.454000000
H    -0.735000000    -0.809000000     1.952000000
C     1.244000000    -1.761000000     1.815000000
H     1.081000000    -2.445000000     2.644000000
C     2.469000000    -1.820000000     1.056000000
C     3.441000000    -2.875000000     1.344000000
O     2.927000000    -3.887000000     1.887000000
O     4.537000000    -2.866000000     0.812000000
