17
-89.07956
C     1.754000000    -1.373000000    -0.517000000
H     2.741000000    -1.528000000    -0.944000000
C     1.002000000    -0.213000000    -0.708000000
H     1.456000000     0.493000000    -1.399000000
C    -0.142000000     0.118000000    -0.008000000
C    -0.915000000     1.388000000    -0.339000000
H    -1.490000000     1.690000000     0.539000000
H    -0.285000000     2.233000000    -0.625000000
H    -1.603000000     1.180000000    -1.161000000
C    -0.550000000    -0.827000000     0.939000000
H    -1.412000000    -0.662000000     1.581000000
C     0.129000000    -2.083000000     1.117000000
H    -0.199000000    -2.854000000     1.809000000
C     1.347000000    -2.255000000     0.414000000
C     2.251000000    -3.408000000     0.739000000
O     2.078000000    -4.061000000     1.789000000
O     3.242000000    -3.577000000     0.146000000
