17
-96.33468
C     2.611000000    -1.884000000    -0.338000000
H     3.618000000    -1.915000000    -0.747000000
C     1.855000000    -0.715000000    -0.573000000
H     2.247000000     0.092000000    -1.187000000
C     0.601000000    -0.641000000    -0.015000000
C    -0.194000000     0.632000000    -0.088000000
H    -1.261000000     0.536000000     0.127000000
H     0.240000000     1.413000000     0.539000000
H    -0.057000000     1.088000000    -1.071000000
C     0.014000000    -1.750000000     0.596000000
H    -1.001000000    -1.783000000     0.983000000
C     0.759000000    -2.866000000     0.859000000
H     0.259000000    -3.714000000     1.318000000
C     2.105000000    -2.918000000     0.412000000
C     2.895000000    -4.191000000     0.832000000
O     2.353000000    -4.992000000     1.562000000
O     4.063000000    -4.373000000     0.563000000
