17
-96.58649
C     2.068000000    -1.398000000    -0.045000000
H     3.077000000    -1.532000000    -0.427000000
C     1.312000000    -0.306000000    -0.538000000
H     1.667000000     0.440000000    -1.244000000
C     0.044000000    -0.158000000     0.001000000
C    -0.855000000     0.991000000    -0.508000000
H    -1.462000000     0.654000000    -1.351000000
H    -1.567000000     1.266000000     0.273000000
H    -0.250000000     1.868000000    -0.748000000
C    -0.479000000    -1.164000000     0.869000000
H    -1.495000000    -1.053000000     1.238000000
C     0.249000000    -2.311000000     1.222000000
H    -0.244000000    -3.090000000     1.797000000
C     1.561000000    -2.446000000     0.726000000
C     2.491000000    -3.507000000     1.193000000
O     2.152000000    -4.302000000     2.041000000
O     3.678000000    -3.357000000     0.917000000
