17
-94.00645
C     0.572000000    -2.718000000    -0.481000000
H     0.234000000    -3.497000000    -1.159000000
C     0.082000000    -1.436000000    -0.597000000
H    -0.659000000    -1.202000000    -1.356000000
C     0.550000000    -0.487000000     0.290000000
C    -0.097000000     0.868000000     0.389000000
H    -0.302000000     1.105000000     1.435000000
H     0.566000000     1.544000000    -0.155000000
H    -1.063000000     0.917000000    -0.117000000
C     1.607000000    -0.761000000     1.120000000
H     2.050000000    -0.097000000     1.858000000
C     2.121000000    -2.066000000     1.216000000
H     2.832000000    -2.359000000     1.983000000
C     1.556000000    -3.054000000     0.453000000
C     2.172000000    -4.431000000     0.456000000
O     3.101000000    -4.635000000     1.255000000
O     1.839000000    -5.295000000    -0.268000000
