17
-88.16587
C     2.183000000    -1.718000000     0.266000000
H     3.169000000    -1.932000000    -0.136000000
C     1.519000000    -0.617000000    -0.297000000
H     1.919000000    -0.046000000    -1.130000000
C     0.242000000    -0.299000000     0.140000000
C    -0.542000000     0.750000000    -0.637000000
H    -0.606000000     1.659000000    -0.037000000
H     0.014000000     0.936000000    -1.559000000
H    -1.481000000     0.316000000    -0.986000000
C    -0.350000000    -1.097000000     1.107000000
H    -1.304000000    -0.724000000     1.471000000
C     0.282000000    -2.140000000     1.744000000
H    -0.293000000    -2.698000000     2.479000000
C     1.546000000    -2.438000000     1.306000000
C     2.308000000    -3.683000000     1.961000000
O     1.727000000    -4.436000000     2.714000000
O     3.387000000    -4.079000000     1.586000000
