17
-95.49432
C     2.134000000    -1.352000000     0.139000000
H     3.153000000    -1.444000000    -0.229000000
C     1.442000000    -0.262000000    -0.395000000
H     1.927000000     0.309000000    -1.183000000
C     0.123000000     0.009000000    -0.001000000
C    -0.658000000     1.050000000    -0.762000000
H    -1.129000000     1.672000000     0.002000000
H     0.024000000     1.634000000    -1.385000000
H    -1.418000000     0.547000000    -1.365000000
C    -0.386000000    -0.626000000     1.152000000
H    -1.426000000    -0.419000000     1.391000000
C     0.259000000    -1.671000000     1.767000000
H    -0.128000000    -2.194000000     2.638000000
C     1.596000000    -1.995000000     1.252000000
C     2.452000000    -3.151000000     1.880000000
O     1.973000000    -3.720000000     2.848000000
O     3.585000000    -3.437000000     1.502000000
