17
-93.52585
C     0.018000000    -2.089000000    -1.168000000
H    -0.478000000    -2.650000000    -1.956000000
C    -0.499000000    -0.822000000    -0.839000000
H    -1.122000000    -0.375000000    -1.610000000
C    -0.130000000    -0.220000000     0.315000000
C    -0.689000000     1.153000000     0.624000000
H    -1.356000000     1.561000000    -0.137000000
H    -1.245000000     1.224000000     1.561000000
H     0.129000000     1.872000000     0.544000000
C     0.859000000    -0.777000000     1.168000000
H     1.152000000    -0.308000000     2.103000000
C     1.337000000    -2.032000000     0.886000000
H     2.145000000    -2.468000000     1.467000000
C     0.886000000    -2.719000000    -0.310000000
C     1.671000000    -3.996000000    -0.763000000
O     2.595000000    -4.365000000    -0.057000000
O     1.557000000    -4.355000000    -1.900000000
