17
-97.31110
C     1.718000000    -1.771000000     0.192000000
H     2.426000000    -2.198000000    -0.513000000
C     0.869000000    -0.781000000    -0.280000000
H     0.834000000    -0.609000000    -1.353000000
C     0.118000000    -0.031000000     0.633000000
C    -0.786000000     1.070000000     0.114000000
H    -1.286000000     0.653000000    -0.763000000
H    -1.438000000     1.518000000     0.867000000
H    -0.092000000     1.839000000    -0.233000000
C     0.056000000    -0.366000000     1.993000000
H    -0.633000000     0.154000000     2.653000000
C     0.944000000    -1.375000000     2.431000000
H     0.946000000    -1.648000000     3.483000000
C     1.831000000    -2.072000000     1.581000000
C     2.758000000    -3.078000000     2.117000000
O     2.946000000    -3.159000000     3.291000000
O     3.143000000    -3.939000000     1.301000000
