17
-95.19719
C     1.637000000    -2.155000000     0.047000000
H     2.500000000    -2.642000000    -0.399000000
C     1.262000000    -0.878000000    -0.415000000
H     1.924000000    -0.355000000    -1.100000000
C     0.120000000    -0.285000000     0.191000000
C    -0.395000000     1.026000000    -0.372000000
H     0.005000000     1.814000000     0.269000000
H    -0.249000000     1.156000000    -1.447000000
H    -1.451000000     1.111000000    -0.108000000
C    -0.477000000    -0.864000000     1.272000000
H    -1.281000000    -0.439000000     1.867000000
C    -0.106000000    -2.165000000     1.730000000
H    -0.551000000    -2.608000000     2.617000000
C     0.957000000    -2.760000000     1.090000000
C     1.395000000    -4.115000000     1.689000000
O     0.683000000    -4.845000000     2.347000000
O     2.459000000    -4.582000000     1.228000000
