17
-96.22927
C     1.366000000    -1.784000000     1.095000000
H     2.311000000    -2.303000000     0.953000000
C     1.030000000    -0.638000000     0.337000000
H     1.629000000    -0.308000000    -0.508000000
C    -0.102000000     0.091000000     0.585000000
C    -0.471000000     1.208000000    -0.380000000
H    -0.040000000     2.169000000    -0.091000000
H    -0.093000000     1.069000000    -1.395000000
H    -1.558000000     1.312000000    -0.383000000
C    -0.933000000    -0.270000000     1.703000000
H    -1.789000000     0.334000000     1.992000000
C    -0.575000000    -1.348000000     2.516000000
H    -1.158000000    -1.680000000     3.371000000
C     0.493000000    -2.109000000     2.158000000
C     0.788000000    -3.410000000     2.958000000
O     0.096000000    -3.750000000     3.903000000
O     1.629000000    -4.205000000     2.574000000
