17
-96.82832
C     2.408000000    -0.813000000     0.258000000
H     3.313000000    -1.185000000    -0.215000000
C     1.413000000    -0.314000000    -0.569000000
H     1.655000000    -0.086000000    -1.603000000
C     0.169000000     0.063000000    -0.019000000
C    -0.779000000     0.742000000    -0.908000000
H    -0.305000000     1.323000000    -1.701000000
H    -1.386000000     0.008000000    -1.442000000
H    -1.306000000     1.511000000    -0.340000000
C    -0.064000000    -0.222000000     1.270000000
H    -0.995000000     0.094000000     1.735000000
C     0.936000000    -0.666000000     2.097000000
H     0.724000000    -0.831000000     3.150000000
C     2.248000000    -0.985000000     1.622000000
C     3.253000000    -1.719000000     2.540000000
O     2.874000000    -1.953000000     3.664000000
O     4.319000000    -2.118000000     2.072000000
