17
-94.54909
C     2.553000000    -1.346000000     0.361000000
H     3.342000000    -1.908000000    -0.132000000
C     1.527000000    -0.779000000    -0.337000000
H     1.529000000    -0.933000000    -1.413000000
C     0.523000000    -0.040000000     0.234000000
C    -0.540000000     0.670000000    -0.623000000
H    -1.293000000     1.160000000    -0.002000000
H     0.006000000     1.364000000    -1.264000000
H    -1.013000000    -0.043000000    -1.302000000
C     0.618000000     0.134000000     1.599000000
H    -0.156000000     0.689000000     2.123000000
C     1.624000000    -0.503000000     2.350000000
H     1.742000000    -0.366000000     3.421000000
C     2.623000000    -1.193000000     1.741000000
C     3.753000000    -1.793000000     2.484000000
O     3.754000000    -1.699000000     3.732000000
O     4.486000000    -2.549000000     1.937000000
