17
-91.51452
C     2.199000000    -0.940000000     1.629000000
H     3.277000000    -1.005000000     1.748000000
C     1.642000000    -0.136000000     0.619000000
H     2.381000000     0.339000000    -0.021000000
C     0.276000000    -0.002000000     0.462000000
C    -0.258000000     0.953000000    -0.610000000
H    -1.231000000     0.642000000    -0.996000000
H    -0.483000000     1.864000000    -0.052000000
H     0.501000000     1.024000000    -1.392000000
C    -0.597000000    -0.561000000     1.352000000
H    -1.659000000    -0.341000000     1.286000000
C    -0.050000000    -1.272000000     2.481000000
H    -0.703000000    -1.602000000     3.284000000
C     1.338000000    -1.523000000     2.596000000
C     1.896000000    -2.161000000     3.878000000
O     1.254000000    -2.839000000     4.616000000
O     3.131000000    -2.228000000     3.968000000
