17
-97.88359
C     2.244000000    -0.893000000     0.640000000
H     3.301000000    -1.051000000     0.445000000
C     1.433000000    -0.253000000    -0.296000000
H     1.884000000     0.262000000    -1.140000000
C     0.082000000     0.000000000    -0.029000000
C    -0.718000000     0.889000000    -0.992000000
H    -0.106000000     1.421000000    -1.724000000
H    -1.474000000     0.264000000    -1.473000000
H    -1.279000000     1.689000000    -0.504000000
C    -0.498000000    -0.524000000     1.110000000
H    -1.527000000    -0.369000000     1.423000000
C     0.337000000    -1.252000000     2.025000000
H    -0.123000000    -1.622000000     2.938000000
C     1.669000000    -1.321000000     1.851000000
C     2.527000000    -2.068000000     2.870000000
O     2.048000000    -2.202000000     3.964000000
O     3.757000000    -2.181000000     2.636000000
