17
-93.74523
C     1.924000000    -0.963000000     0.271000000
H     2.896000000    -1.203000000    -0.152000000
C     1.113000000     0.023000000    -0.322000000
H     1.540000000     0.658000000    -1.094000000
C    -0.225000000     0.178000000     0.092000000
C    -1.055000000     1.256000000    -0.574000000
H    -0.944000000     2.001000000     0.216000000
H    -0.572000000     1.687000000    -1.454000000
H    -2.120000000     1.065000000    -0.717000000
C    -0.731000000    -0.596000000     1.158000000
H    -1.779000000    -0.567000000     1.443000000
C     0.119000000    -1.506000000     1.788000000
H    -0.221000000    -1.958000000     2.717000000
C     1.461000000    -1.735000000     1.350000000
C     2.374000000    -2.719000000     2.009000000
O     1.947000000    -3.610000000     2.725000000
O     3.545000000    -2.702000000     1.769000000
