17
-95.48792
C     2.083000000    -0.759000000     1.297000000
H     3.131000000    -1.033000000     1.208000000
C     1.477000000     0.014000000     0.351000000
H     2.121000000     0.518000000    -0.365000000
C     0.119000000     0.148000000     0.314000000
C    -0.576000000     0.951000000    -0.727000000
H    -0.688000000     1.973000000    -0.360000000
H     0.210000000     0.968000000    -1.485000000
H    -1.472000000     0.512000000    -1.172000000
C    -0.649000000    -0.440000000     1.365000000
H    -1.734000000    -0.375000000     1.337000000
C     0.028000000    -1.173000000     2.369000000
H    -0.562000000    -1.578000000     3.187000000
C     1.424000000    -1.293000000     2.376000000
C     2.113000000    -2.205000000     3.368000000
O     1.435000000    -2.817000000     4.166000000
O     3.329000000    -2.294000000     3.381000000
