17
-96.51582
C     2.132000000    -1.523000000     0.725000000
H     2.975000000    -2.063000000     0.301000000
C     1.388000000    -0.691000000    -0.158000000
H     1.540000000    -0.673000000    -1.234000000
C     0.313000000    -0.041000000     0.366000000
C    -0.394000000     0.842000000    -0.599000000
H    -0.509000000     0.365000000    -1.575000000
H    -1.375000000     0.963000000    -0.136000000
H     0.163000000     1.780000000    -0.655000000
C    -0.123000000    -0.169000000     1.687000000
H    -1.095000000     0.233000000     1.964000000
C     0.618000000    -1.061000000     2.517000000
H     0.245000000    -1.212000000     3.527000000
C     1.820000000    -1.676000000     2.055000000
C     2.740000000    -2.507000000     2.956000000
O     2.668000000    -2.362000000     4.148000000
O     3.559000000    -3.302000000     2.439000000
