17
-92.38354
C     1.376000000    -2.931000000     1.041000000
H     1.506000000    -3.947000000     0.678000000
C     0.719000000    -1.951000000     0.231000000
H     0.040000000    -2.102000000    -0.604000000
C     0.722000000    -0.563000000     0.640000000
C    -0.104000000     0.433000000    -0.072000000
H     0.242000000     1.464000000     0.028000000
H    -0.141000000     0.304000000    -1.156000000
H    -1.061000000     0.421000000     0.454000000
C     1.542000000    -0.150000000     1.778000000
H     1.699000000     0.892000000     2.042000000
C     2.202000000    -1.124000000     2.530000000
H     2.753000000    -0.788000000     3.405000000
C     2.063000000    -2.500000000     2.230000000
C     2.750000000    -3.532000000     3.107000000
O     3.289000000    -3.148000000     4.116000000
O     2.643000000    -4.777000000     2.909000000
