17
-92.76298
C     1.944000000    -2.815000000     0.618000000
H     2.117000000    -3.791000000     0.172000000
C     1.078000000    -1.939000000    -0.045000000
H     0.730000000    -2.150000000    -1.053000000
C     0.889000000    -0.640000000     0.445000000
C     0.007000000     0.281000000    -0.295000000
H     0.662000000     0.742000000    -1.037000000
H    -0.866000000    -0.216000000    -0.722000000
H    -0.392000000     0.933000000     0.486000000
C     1.298000000    -0.324000000     1.747000000
H     1.079000000     0.680000000     2.103000000
C     2.022000000    -1.307000000     2.478000000
H     2.366000000    -1.060000000     3.479000000
C     2.427000000    -2.551000000     1.875000000
C     3.010000000    -3.688000000     2.729000000
O     2.836000000    -3.749000000     3.996000000
O     3.488000000    -4.619000000     2.134000000
