17
-93.69464
C     0.775000000    -3.096000000     0.006000000
H     0.486000000    -4.053000000    -0.420000000
C     0.134000000    -1.963000000    -0.433000000
H    -0.755000000    -1.992000000    -1.058000000
C     0.655000000    -0.717000000    -0.121000000
C    -0.071000000     0.515000000    -0.564000000
H    -1.087000000     0.227000000    -0.842000000
H    -0.036000000     1.268000000     0.226000000
H     0.358000000     1.007000000    -1.439000000
C     1.808000000    -0.649000000     0.677000000
H     2.245000000     0.283000000     1.024000000
C     2.386000000    -1.802000000     1.136000000
H     3.117000000    -1.694000000     1.933000000
C     1.913000000    -3.030000000     0.845000000
C     2.557000000    -4.234000000     1.493000000
O     3.549000000    -4.108000000     2.160000000
O     2.099000000    -5.376000000     1.383000000
