17
-98.07003
C     0.468000000    -1.545000000    -1.849000000
H     0.310000000    -1.799000000    -2.894000000
C    -0.115000000    -0.393000000    -1.352000000
H    -0.587000000     0.377000000    -1.957000000
C    -0.009000000    -0.168000000     0.037000000
C    -0.549000000     1.109000000     0.702000000
H    -0.444000000     2.050000000     0.156000000
H    -1.614000000     0.930000000     0.861000000
H    -0.058000000     1.224000000     1.670000000
C     0.656000000    -1.117000000     0.802000000
H     0.856000000    -0.964000000     1.860000000
C     1.222000000    -2.281000000     0.246000000
H     1.723000000    -2.987000000     0.904000000
C     1.133000000    -2.509000000    -1.129000000
C     1.625000000    -3.799000000    -1.734000000
O     2.166000000    -4.596000000    -0.985000000
O     1.606000000    -4.044000000    -2.930000000
