17
-86.92999
C     0.434000000    -2.165000000     1.061000000
H     0.127000000    -3.207000000     1.046000000
C    -0.015000000    -1.431000000     0.012000000
H    -0.637000000    -1.879000000    -0.759000000
C     0.239000000    -0.104000000    -0.083000000
C    -0.399000000     0.622000000    -1.207000000
H     0.147000000     0.619000000    -2.153000000
H    -1.410000000     0.263000000    -1.409000000
H    -0.469000000     1.675000000    -0.925000000
C     1.040000000     0.537000000     0.836000000
H     1.330000000     1.584000000     0.806000000
C     1.655000000    -0.215000000     1.821000000
H     2.200000000     0.298000000     2.609000000
C     1.332000000    -1.578000000     1.974000000
C     1.799000000    -2.387000000     3.134000000
O     2.408000000    -1.879000000     4.041000000
O     1.763000000    -3.589000000     3.148000000
