17
-96.99459
C     0.720000000    -2.152000000     0.984000000
H     0.574000000    -3.223000000     1.097000000
C    -0.111000000    -1.462000000     0.114000000
H    -0.959000000    -1.952000000    -0.358000000
C     0.127000000    -0.095000000    -0.038000000
C    -0.699000000     0.656000000    -0.939000000
H    -1.621000000     0.989000000    -0.456000000
H    -0.265000000     1.587000000    -1.310000000
H    -1.052000000     0.144000000    -1.836000000
C     1.028000000     0.566000000     0.768000000
H     1.290000000     1.612000000     0.625000000
C     1.900000000    -0.125000000     1.555000000
H     2.665000000     0.374000000     2.144000000
C     1.796000000    -1.519000000     1.650000000
C     2.726000000    -2.320000000     2.576000000
O     3.602000000    -1.725000000     3.182000000
O     2.624000000    -3.521000000     2.647000000
