17
-85.86444
C     1.929000000    -1.667000000     0.680000000
H     2.250000000    -2.705000000     0.661000000
C     0.871000000    -1.163000000    -0.088000000
H     0.245000000    -1.823000000    -0.684000000
C     0.596000000     0.197000000    -0.102000000
C    -0.622000000     0.623000000    -0.771000000
H    -0.943000000    -0.148000000    -1.474000000
H    -1.328000000     0.743000000     0.054000000
H    -0.418000000     1.538000000    -1.331000000
C     1.273000000     1.032000000     0.728000000
H     0.882000000     2.038000000     0.863000000
C     2.374000000     0.582000000     1.498000000
H     2.954000000     1.247000000     2.133000000
C     2.706000000    -0.785000000     1.436000000
C     3.890000000    -1.275000000     2.216000000
O     4.128000000    -0.694000000     3.217000000
O     4.334000000    -2.375000000     2.053000000
