17
-92.46614
C     1.043000000    -2.697000000     0.910000000
H     0.763000000    -3.717000000     1.161000000
C     0.185000000    -1.920000000     0.230000000
H    -0.769000000    -2.406000000     0.041000000
C     0.428000000    -0.609000000    -0.177000000
C    -0.565000000     0.225000000    -0.876000000
H    -0.129000000     1.222000000    -0.964000000
H    -0.687000000    -0.069000000    -1.921000000
H    -1.494000000     0.318000000    -0.309000000
C     1.609000000    -0.070000000     0.276000000
H     1.790000000     0.997000000     0.170000000
C     2.558000000    -0.809000000     0.981000000
H     3.510000000    -0.327000000     1.187000000
C     2.288000000    -2.188000000     1.312000000
C     3.312000000    -3.075000000     2.055000000
O     4.271000000    -2.552000000     2.599000000
O     3.232000000    -4.233000000     1.805000000
