17
-93.93945
C     1.114000000    -2.429000000     0.767000000
H     1.017000000    -3.508000000     0.851000000
C     0.125000000    -1.704000000     0.131000000
H    -0.717000000    -2.243000000    -0.296000000
C     0.238000000    -0.358000000    -0.019000000
C    -0.750000000     0.554000000    -0.778000000
H    -1.493000000     0.790000000    -0.014000000
H    -0.206000000     1.470000000    -1.018000000
H    -1.113000000     0.051000000    -1.677000000
C     1.252000000     0.318000000     0.530000000
H     1.336000000     1.401000000     0.498000000
C     2.257000000    -0.385000000     1.247000000
H     3.086000000     0.115000000     1.741000000
C     2.202000000    -1.822000000     1.284000000
C     3.355000000    -2.555000000     2.005000000
O     4.371000000    -1.963000000     2.361000000
O     3.260000000    -3.759000000     2.107000000
