17
-90.73670
C     0.704000000    -2.627000000     0.344000000
H     0.560000000    -3.694000000     0.195000000
C    -0.207000000    -1.677000000    -0.103000000
H    -1.211000000    -1.923000000    -0.442000000
C     0.019000000    -0.282000000     0.082000000
C    -0.899000000     0.691000000    -0.732000000
H    -1.809000000     0.917000000    -0.173000000
H    -0.401000000     1.639000000    -0.945000000
H    -1.242000000     0.188000000    -1.638000000
C     1.219000000     0.086000000     0.622000000
H     1.387000000     1.146000000     0.794000000
C     2.075000000    -0.846000000     1.147000000
H     3.009000000    -0.465000000     1.553000000
C     1.918000000    -2.242000000     0.893000000
C     2.889000000    -3.196000000     1.519000000
O     3.708000000    -2.728000000     2.272000000
O     2.742000000    -4.374000000     1.372000000
