17
-94.68857
C     1.321000000    -2.750000000     0.606000000
H     1.176000000    -3.823000000     0.504000000
C     0.315000000    -1.928000000     0.176000000
H    -0.607000000    -2.372000000    -0.192000000
C     0.519000000    -0.542000000     0.376000000
C    -0.510000000     0.508000000    -0.042000000
H    -0.929000000     0.291000000    -1.027000000
H    -1.322000000     0.534000000     0.688000000
H    -0.077000000     1.493000000    -0.227000000
C     1.609000000    -0.068000000     1.127000000
H     1.752000000     0.999000000     1.275000000
C     2.617000000    -0.934000000     1.548000000
H     3.413000000    -0.589000000     2.203000000
C     2.492000000    -2.321000000     1.270000000
C     3.472000000    -3.407000000     1.758000000
O     4.480000000    -3.127000000     2.333000000
O     3.065000000    -4.551000000     1.781000000
