17
-82.56046
C     0.015000000    -1.588000000     2.383000000
H    -0.423000000    -2.478000000     2.826000000
C    -0.498000000    -1.115000000     1.178000000
H    -1.451000000    -1.541000000     0.877000000
C     0.143000000    -0.058000000     0.535000000
C    -0.453000000     0.548000000    -0.676000000
H    -1.123000000    -0.158000000    -1.172000000
H    -1.099000000     1.386000000    -0.406000000
H     0.243000000     0.966000000    -1.406000000
C     1.242000000     0.560000000     1.101000000
H     1.618000000     1.443000000     0.589000000
C     1.706000000     0.188000000     2.303000000
H     2.487000000     0.757000000     2.801000000
C     1.106000000    -0.832000000     3.017000000
C     1.763000000    -1.385000000     4.272000000
O     2.753000000    -0.870000000     4.689000000
O     1.372000000    -2.300000000     4.943000000
