17
-95.41666
C     0.149000000    -1.704000000     2.130000000
H    -0.026000000    -2.697000000     2.537000000
C    -0.239000000    -1.301000000     0.907000000
H    -0.719000000    -1.980000000     0.208000000
C    -0.001000000     0.008000000     0.467000000
C    -0.472000000     0.370000000    -0.945000000
H    -1.562000000     0.369000000    -1.012000000
H    -0.112000000     1.333000000    -1.313000000
H    -0.020000000    -0.342000000    -1.638000000
C     0.711000000     0.903000000     1.347000000
H     0.995000000     1.892000000     0.993000000
C     0.999000000     0.540000000     2.641000000
H     1.469000000     1.178000000     3.385000000
C     0.729000000    -0.810000000     3.059000000
C     0.985000000    -1.214000000     4.483000000
O     1.553000000    -0.434000000     5.259000000
O     0.735000000    -2.312000000     4.910000000
