17
-88.98905
C    -0.136000000    -1.774000000     2.004000000
H    -0.032000000    -2.807000000     2.327000000
C    -0.431000000    -1.396000000     0.733000000
H    -0.844000000    -2.164000000     0.084000000
C    -0.249000000    -0.057000000     0.265000000
C    -0.777000000     0.348000000    -1.151000000
H    -0.189000000    -0.100000000    -1.955000000
H    -1.838000000     0.159000000    -1.325000000
H    -0.638000000     1.410000000    -1.363000000
C     0.201000000     0.826000000     1.217000000
H     0.366000000     1.858000000     0.917000000
C     0.436000000     0.427000000     2.527000000
H     0.804000000     1.059000000     3.331000000
C     0.315000000    -0.884000000     2.900000000
C     0.551000000    -1.348000000     4.320000000
O     1.330000000    -0.732000000     5.015000000
O     0.036000000    -2.366000000     4.804000000
