17
-93.01846
C     1.871000000    -1.798000000     0.833000000
H     2.630000000    -2.496000000     0.491000000
C     1.264000000    -1.002000000    -0.181000000
H     1.407000000    -1.071000000    -1.256000000
C     0.242000000    -0.130000000     0.241000000
C    -0.569000000     0.620000000    -0.851000000
H    -0.500000000     1.685000000    -0.617000000
H    -0.023000000     0.422000000    -1.776000000
H    -1.590000000     0.240000000    -0.912000000
C     0.033000000     0.073000000     1.582000000
H    -0.833000000     0.696000000     1.789000000
C     0.603000000    -0.755000000     2.579000000
H     0.244000000    -0.690000000     3.603000000
C     1.439000000    -1.768000000     2.139000000
C     2.151000000    -2.556000000     3.220000000
O     1.843000000    -2.356000000     4.395000000
O     3.081000000    -3.302000000     2.965000000
