17
-96.55544
C     0.730000000    -1.728000000    -2.046000000
H     0.426000000    -2.112000000    -3.017000000
C     0.036000000    -0.690000000    -1.440000000
H    -0.833000000    -0.160000000    -1.821000000
C     0.492000000    -0.191000000    -0.233000000
C    -0.045000000     1.111000000     0.272000000
H     0.586000000     1.910000000    -0.125000000
H    -1.057000000     1.136000000    -0.135000000
H    -0.058000000     1.283000000     1.351000000
C     1.501000000    -0.855000000     0.427000000
H     1.827000000    -0.567000000     1.423000000
C     2.103000000    -1.941000000    -0.149000000
H     2.780000000    -2.588000000     0.402000000
C     1.773000000    -2.368000000    -1.404000000
C     2.419000000    -3.578000000    -2.021000000
O     3.192000000    -4.260000000    -1.340000000
O     2.162000000    -3.993000000    -3.191000000
