17
-97.47617
C     2.445000000    -1.646000000     0.343000000
H     3.316000000    -2.057000000    -0.161000000
C     1.557000000    -0.879000000    -0.405000000
H     1.777000000    -0.638000000    -1.442000000
C     0.354000000    -0.412000000     0.187000000
C    -0.702000000     0.283000000    -0.715000000
H    -0.429000000     1.334000000    -0.825000000
H    -0.654000000     0.015000000    -1.772000000
H    -1.738000000     0.185000000    -0.382000000
C     0.025000000    -0.909000000     1.498000000
H    -0.897000000    -0.659000000     2.018000000
C     0.923000000    -1.656000000     2.191000000
H     0.717000000    -1.996000000     3.203000000
C     2.115000000    -2.099000000     1.615000000
C     3.042000000    -2.892000000     2.516000000
O     2.809000000    -2.881000000     3.710000000
O     4.049000000    -3.399000000     2.027000000
