17
-90.01634
C     1.233000000    -2.522000000     0.582000000
H     1.914000000    -3.201000000     0.074000000
C     0.723000000    -1.537000000    -0.260000000
H     0.878000000    -1.583000000    -1.335000000
C    -0.033000000    -0.627000000     0.342000000
C    -0.842000000     0.249000000    -0.589000000
H    -1.055000000     1.165000000    -0.034000000
H    -0.233000000     0.564000000    -1.439000000
H    -1.706000000    -0.257000000    -1.023000000
C    -0.251000000    -0.541000000     1.715000000
H    -0.895000000     0.251000000     2.089000000
C     0.311000000    -1.483000000     2.553000000
H     0.112000000    -1.472000000     3.621000000
C     1.112000000    -2.470000000     1.973000000
C     1.768000000    -3.471000000     2.778000000
O     1.618000000    -3.473000000     4.030000000
O     2.603000000    -4.197000000     2.293000000
