17
-92.24193
C     2.297000000    -1.711000000     1.818000000
H     3.251000000    -2.162000000     1.559000000
C     1.336000000    -1.377000000     0.860000000
H     1.556000000    -1.451000000    -0.202000000
C     0.087000000    -0.848000000     1.177000000
C    -0.720000000    -0.298000000     0.017000000
H    -0.099000000     0.027000000    -0.820000000
H    -1.370000000    -1.115000000    -0.302000000
H    -1.327000000     0.579000000     0.252000000
C    -0.204000000    -0.537000000     2.510000000
H    -1.066000000     0.097000000     2.700000000
C     0.709000000    -0.929000000     3.491000000
H     0.480000000    -0.662000000     4.520000000
C     2.008000000    -1.388000000     3.145000000
C     2.923000000    -1.725000000     4.283000000
O     2.616000000    -1.281000000     5.341000000
O     3.950000000    -2.354000000     4.153000000
