17
-88.18597
C     2.300000000    -1.212000000     0.706000000
H     3.218000000    -1.755000000     0.495000000
C     1.399000000    -0.854000000    -0.302000000
H     1.679000000    -0.978000000    -1.345000000
C     0.185000000    -0.295000000    -0.063000000
C    -0.913000000     0.020000000    -1.138000000
H    -1.824000000    -0.432000000    -0.740000000
H    -1.243000000     1.061000000    -1.165000000
H    -0.578000000    -0.257000000    -2.140000000
C    -0.203000000    -0.101000000     1.252000000
H    -1.174000000     0.346000000     1.448000000
C     0.612000000    -0.467000000     2.316000000
H     0.290000000    -0.206000000     3.321000000
C     1.858000000    -0.924000000     2.024000000
C     2.793000000    -1.375000000     3.208000000
O     2.311000000    -1.559000000     4.295000000
O     3.965000000    -1.438000000     3.054000000
