17
-92.36809
C     2.268000000     0.080000000     0.270000000
H     3.177000000    -0.340000000    -0.154000000
C     1.079000000    -0.297000000    -0.326000000
H     1.039000000    -0.867000000    -1.251000000
C    -0.137000000     0.238000000     0.163000000
C    -1.442000000     0.037000000    -0.472000000
H    -1.368000000     0.327000000    -1.522000000
H    -1.853000000    -0.953000000    -0.263000000
H    -2.135000000     0.770000000    -0.053000000
C    -0.133000000     0.996000000     1.273000000
H    -1.009000000     1.488000000     1.689000000
C     1.080000000     1.392000000     1.821000000
H     1.145000000     2.149000000     2.597000000
C     2.300000000     0.900000000     1.400000000
C     3.583000000     1.236000000     2.088000000
O     3.580000000     1.244000000     3.301000000
O     4.664000000     1.467000000     1.527000000
