17
-97.62182
C     2.851000000     0.077000000     0.833000000
H     3.743000000    -0.330000000     0.364000000
C     1.660000000    -0.283000000     0.307000000
H     1.729000000    -0.999000000    -0.507000000
C     0.443000000     0.324000000     0.784000000
C    -0.826000000    -0.182000000     0.214000000
H    -0.856000000     0.000000000    -0.862000000
H    -0.877000000    -1.262000000     0.364000000
H    -1.729000000     0.278000000     0.622000000
C     0.524000000     1.262000000     1.844000000
H    -0.368000000     1.730000000     2.252000000
C     1.797000000     1.562000000     2.371000000
H     1.851000000     2.328000000     3.141000000
C     2.973000000     1.011000000     1.868000000
C     4.297000000     1.256000000     2.502000000
O     4.424000000     1.709000000     3.625000000
O     5.265000000     0.925000000     1.861000000
