17
-90.57746
C     3.364000000     0.787000000     0.860000000
H     4.324000000     0.452000000     0.476000000
C     2.257000000     0.231000000     0.225000000
H     2.312000000    -0.590000000    -0.485000000
C     0.974000000     0.637000000     0.690000000
C    -0.169000000     0.184000000    -0.099000000
H    -0.282000000    -0.895000000     0.018000000
H    -1.114000000     0.685000000     0.120000000
H     0.052000000     0.456000000    -1.133000000
C     0.927000000     1.580000000     1.759000000
H    -0.076000000     1.830000000     2.095000000
C     2.011000000     2.198000000     2.274000000
H     1.949000000     2.816000000     3.166000000
C     3.279000000     1.819000000     1.807000000
C     4.528000000     2.360000000     2.412000000
O     4.542000000     3.319000000     3.152000000
O     5.536000000     1.618000000     2.469000000
