17
-88.71247
C     2.696000000     0.049000000     0.482000000
H     3.718000000    -0.078000000     0.133000000
C     1.617000000     0.109000000    -0.360000000
H     1.583000000    -0.129000000    -1.420000000
C     0.380000000     0.316000000     0.158000000
C    -0.765000000     0.225000000    -0.726000000
H    -0.722000000     0.798000000    -1.654000000
H    -1.031000000    -0.816000000    -0.920000000
H    -1.650000000     0.622000000    -0.224000000
C     0.160000000     0.446000000     1.519000000
H    -0.878000000     0.521000000     1.833000000
C     1.247000000     0.543000000     2.358000000
H     1.143000000     0.685000000     3.431000000
C     2.525000000     0.299000000     1.879000000
C     3.627000000     0.037000000     2.919000000
O     3.525000000     0.342000000     4.094000000
O     4.693000000    -0.368000000     2.548000000
