17
-90.21213
C     0.924000000    -1.684000000    -1.945000000
H     1.053000000    -1.888000000    -3.005000000
C     0.158000000    -0.593000000    -1.539000000
H    -0.506000000     0.028000000    -2.136000000
C     0.049000000    -0.385000000    -0.149000000
C    -0.828000000     0.695000000     0.331000000
H    -0.857000000     1.486000000    -0.421000000
H    -1.819000000     0.281000000     0.525000000
H    -0.384000000     1.206000000     1.188000000
C     0.821000000    -1.072000000     0.818000000
H     0.783000000    -0.780000000     1.864000000
C     1.579000000    -2.092000000     0.306000000
H     2.206000000    -2.663000000     0.987000000
C     1.597000000    -2.473000000    -1.073000000
C     2.334000000    -3.686000000    -1.394000000
O     3.042000000    -4.188000000    -0.573000000
O     2.454000000    -4.019000000    -2.580000000
