17
-97.83329
C     2.538000000    -0.482000000     0.651000000
H     3.459000000    -1.007000000     0.412000000
C     1.527000000    -0.493000000    -0.321000000
H     1.828000000    -1.065000000    -1.195000000
C     0.255000000     0.021000000    -0.069000000
C    -0.744000000     0.097000000    -1.195000000
H    -0.557000000    -0.633000000    -1.987000000
H    -1.744000000    -0.095000000    -0.800000000
H    -0.620000000     1.094000000    -1.621000000
C     0.018000000     0.668000000     1.171000000
H    -0.937000000     1.148000000     1.370000000
C     1.070000000     0.717000000     2.107000000
H     0.844000000     1.122000000     3.090000000
C     2.272000000     0.043000000     1.921000000
C     3.170000000    -0.086000000     3.104000000
O     2.668000000     0.061000000     4.250000000
O     4.263000000    -0.538000000     2.930000000
