17
-99.79893
C     0.400000000    -1.861000000    -2.177000000
H     0.167000000    -2.123000000    -3.206000000
C    -0.169000000    -0.669000000    -1.630000000
H    -0.810000000    -0.113000000    -2.309000000
C     0.167000000    -0.280000000    -0.318000000
C    -0.451000000     0.956000000     0.309000000
H    -0.715000000     0.827000000     1.361000000
H     0.354000000     1.695000000     0.313000000
H    -1.289000000     1.318000000    -0.289000000
C     1.049000000    -1.104000000     0.386000000
H     1.338000000    -0.849000000     1.402000000
C     1.686000000    -2.256000000    -0.164000000
H     2.325000000    -2.956000000     0.367000000
C     1.366000000    -2.606000000    -1.520000000
C     1.842000000    -3.863000000    -2.189000000
O     2.644000000    -4.506000000    -1.518000000
O     1.573000000    -4.146000000    -3.361000000
