17
-87.48815
C     3.150000000     0.536000000     0.836000000
H     4.156000000     0.207000000     0.588000000
C     2.072000000     0.145000000     0.078000000
H     2.294000000    -0.361000000    -0.858000000
C     0.826000000     0.501000000     0.397000000
C    -0.289000000     0.206000000    -0.576000000
H    -0.003000000    -0.609000000    -1.245000000
H    -1.163000000    -0.152000000    -0.029000000
H    -0.685000000     1.074000000    -1.105000000
C     0.591000000     1.215000000     1.494000000
H    -0.387000000     1.643000000     1.699000000
C     1.578000000     1.578000000     2.344000000
H     1.371000000     2.006000000     3.322000000
C     2.916000000     1.243000000     2.046000000
C     4.050000000     1.500000000     3.019000000
O     3.808000000     2.075000000     4.072000000
O     5.118000000     0.959000000     2.904000000
