17
-93.61687
C     2.830000000     0.050000000     0.957000000
H     3.872000000    -0.151000000     0.721000000
C     1.786000000    -0.215000000     0.021000000
H     2.078000000    -0.569000000    -0.964000000
C     0.435000000    -0.031000000     0.371000000
C    -0.664000000     0.068000000    -0.687000000
H    -1.381000000    -0.751000000    -0.599000000
H    -1.167000000     1.001000000    -0.425000000
H    -0.219000000     0.120000000    -1.682000000
C     0.198000000     0.320000000     1.718000000
H    -0.834000000     0.542000000     1.978000000
C     1.201000000     0.418000000     2.683000000
H     1.014000000     0.524000000     3.749000000
C     2.511000000     0.289000000     2.315000000
C     3.520000000     0.132000000     3.423000000
O     3.123000000     0.090000000     4.607000000
O     4.682000000     0.456000000     3.171000000
