17
-93.90071
C     2.858000000    -0.804000000    -0.361000000
H     3.664000000    -1.250000000    -0.939000000
C     1.564000000    -0.658000000    -0.960000000
H     1.508000000    -0.995000000    -1.992000000
C     0.549000000    -0.079000000    -0.245000000
C    -0.832000000     0.141000000    -0.894000000
H    -1.414000000     0.867000000    -0.322000000
H    -0.780000000     0.647000000    -1.860000000
H    -1.504000000    -0.720000000    -0.929000000
C     0.776000000     0.495000000     0.977000000
H     0.027000000     1.176000000     1.373000000
C     2.052000000     0.500000000     1.522000000
H     2.205000000     1.200000000     2.341000000
C     3.127000000    -0.116000000     0.840000000
C     4.485000000    -0.211000000     1.513000000
O     4.817000000     0.648000000     2.301000000
O     5.262000000    -1.111000000     1.200000000
