17
-97.17253
C     2.814000000    -0.287000000     0.233000000
H     3.791000000    -0.571000000    -0.148000000
C     1.657000000    -0.388000000    -0.540000000
H     1.640000000    -0.814000000    -1.540000000
C     0.387000000    -0.063000000     0.009000000
C    -0.864000000    -0.231000000    -0.835000000
H    -1.561000000     0.589000000    -0.648000000
H    -0.553000000    -0.139000000    -1.877000000
H    -1.295000000    -1.222000000    -0.676000000
C     0.304000000     0.314000000     1.408000000
H    -0.696000000     0.333000000     1.833000000
C     1.497000000     0.428000000     2.105000000
H     1.363000000     0.638000000     3.163000000
C     2.765000000     0.215000000     1.560000000
C     4.011000000     0.203000000     2.466000000
O     3.827000000     0.327000000     3.669000000
O     5.019000000    -0.248000000     1.984000000
