17
-92.13400
C     0.846000000    -1.268000000    -2.250000000
H     0.851000000    -1.574000000    -3.293000000
C    -0.094000000    -0.307000000    -1.750000000
H    -0.992000000    -0.080000000    -2.319000000
C     0.053000000     0.130000000    -0.448000000
C    -0.837000000     1.139000000     0.219000000
H    -0.284000000     1.969000000     0.663000000
H    -1.591000000     1.648000000    -0.386000000
H    -1.560000000     0.658000000     0.881000000
C     1.087000000    -0.312000000     0.385000000
H     1.189000000     0.040000000     1.408000000
C     1.975000000    -1.275000000    -0.106000000
H     2.680000000    -1.637000000     0.638000000
C     1.919000000    -1.708000000    -1.443000000
C     2.783000000    -2.728000000    -2.046000000
O     3.424000000    -3.425000000    -1.280000000
O     2.663000000    -3.106000000    -3.214000000
