17
-92.61552
C     2.559000000    -0.178000000     0.265000000
H     3.458000000    -0.383000000    -0.311000000
C     1.323000000    -0.125000000    -0.440000000
H     1.199000000    -0.382000000    -1.489000000
C     0.200000000     0.262000000     0.246000000
C    -1.097000000     0.350000000    -0.479000000
H    -1.859000000     0.891000000     0.086000000
H    -0.924000000     0.815000000    -1.452000000
H    -1.318000000    -0.707000000    -0.636000000
C     0.167000000     0.501000000     1.612000000
H    -0.740000000     0.597000000     2.205000000
C     1.373000000     0.421000000     2.275000000
H     1.366000000     0.627000000     3.343000000
C     2.557000000     0.068000000     1.656000000
C     3.862000000     0.178000000     2.394000000
O     3.877000000    -0.119000000     3.549000000
O     4.887000000     0.269000000     1.738000000
