17
-92.14247
C     2.558000000     0.124000000    -0.008000000
H     3.417000000    -0.121000000    -0.629000000
C     1.314000000     0.057000000    -0.555000000
H     1.156000000    -0.175000000    -1.605000000
C     0.175000000     0.306000000     0.164000000
C    -1.243000000     0.340000000    -0.423000000
H    -1.890000000    -0.377000000     0.087000000
H    -1.745000000     1.309000000    -0.367000000
H    -1.257000000    -0.018000000    -1.454000000
C     0.306000000     0.642000000     1.521000000
H    -0.587000000     0.714000000     2.137000000
C     1.505000000     0.720000000     2.133000000
H     1.406000000     1.022000000     3.172000000
C     2.643000000     0.379000000     1.397000000
C     3.892000000     0.324000000     2.158000000
O     3.937000000     0.636000000     3.373000000
O     4.862000000    -0.151000000     1.604000000
