17
-93.08670
C     2.098000000    -1.376000000     0.520000000
H     2.963000000    -1.925000000     0.156000000
C     1.243000000    -0.846000000    -0.451000000
H     1.462000000    -1.089000000    -1.487000000
C     0.115000000    -0.155000000    -0.086000000
C    -0.817000000     0.473000000    -1.091000000
H    -1.345000000     1.362000000    -0.737000000
H    -0.124000000     0.716000000    -1.899000000
H    -1.574000000    -0.255000000    -1.388000000
C    -0.267000000    -0.049000000     1.235000000
H    -1.160000000     0.480000000     1.559000000
C     0.542000000    -0.634000000     2.187000000
H     0.241000000    -0.639000000     3.232000000
C     1.805000000    -1.233000000     1.880000000
C     2.656000000    -1.816000000     2.949000000
O     2.405000000    -1.529000000     4.088000000
O     3.801000000    -2.178000000     2.632000000
