17
-92.07671
C     1.862000000    -1.830000000     0.524000000
H     2.064000000    -2.878000000     0.731000000
C     0.605000000    -1.425000000     0.143000000
H    -0.182000000    -2.174000000     0.145000000
C     0.395000000    -0.085000000    -0.137000000
C    -0.972000000     0.250000000    -0.626000000
H    -1.789000000    -0.142000000    -0.017000000
H    -1.064000000     1.337000000    -0.586000000
H    -1.057000000    -0.121000000    -1.649000000
C     1.400000000     0.843000000    -0.079000000
H     1.314000000     1.923000000    -0.175000000
C     2.625000000     0.492000000     0.335000000
H     3.382000000     1.271000000     0.354000000
C     2.898000000    -0.871000000     0.663000000
C     4.307000000    -1.236000000     1.048000000
O     5.095000000    -0.356000000     1.296000000
O     4.636000000    -2.388000000     1.171000000
