17
-92.45079
C     3.007000000    -0.121000000    -0.464000000
H     3.806000000    -0.492000000    -1.102000000
C     1.729000000    -0.008000000    -0.940000000
H     1.536000000    -0.382000000    -1.942000000
C     0.700000000     0.390000000    -0.110000000
C    -0.718000000     0.205000000    -0.562000000
H    -1.323000000     1.032000000    -0.186000000
H    -0.657000000     0.169000000    -1.652000000
H    -1.110000000    -0.742000000    -0.186000000
C     0.947000000     0.758000000     1.206000000
H     0.201000000     0.922000000     1.980000000
C     2.210000000     0.600000000     1.718000000
H     2.515000000     0.897000000     2.719000000
C     3.249000000     0.278000000     0.844000000
C     4.714000000     0.141000000     1.333000000
O     5.023000000     0.578000000     2.404000000
O     5.560000000    -0.390000000     0.649000000
