17
-102.76204
C     2.749000000     0.519000000     0.534000000
H     3.682000000     0.606000000    -0.017000000
C     1.585000000     0.330000000    -0.219000000
H     1.697000000     0.287000000    -1.299000000
C     0.316000000     0.139000000     0.313000000
C    -0.955000000    -0.161000000    -0.433000000
H    -0.926000000     0.281000000    -1.432000000
H    -1.103000000    -1.242000000    -0.478000000
H    -1.833000000     0.255000000     0.065000000
C     0.239000000     0.230000000     1.675000000
H    -0.721000000     0.067000000     2.159000000
C     1.355000000     0.488000000     2.473000000
H     1.223000000     0.539000000     3.550000000
C     2.617000000     0.670000000     1.887000000
C     3.801000000     0.954000000     2.807000000
O     3.736000000     0.670000000     3.996000000
O     4.788000000     1.471000000     2.274000000
