17
-86.39783
C     1.126000000    -2.607000000     1.077000000
H     0.756000000    -3.496000000     1.580000000
C     0.171000000    -1.735000000     0.536000000
H    -0.842000000    -2.124000000     0.469000000
C     0.438000000    -0.483000000     0.080000000
C    -0.606000000     0.356000000    -0.594000000
H    -1.525000000    -0.233000000    -0.601000000
H    -0.787000000     1.349000000    -0.177000000
H    -0.255000000     0.641000000    -1.589000000
C     1.731000000     0.013000000     0.261000000
H     1.849000000     1.081000000     0.098000000
C     2.707000000    -0.852000000     0.799000000
H     3.692000000    -0.407000000     0.682000000
C     2.457000000    -2.172000000     1.089000000
C     3.524000000    -2.967000000     1.738000000
O     4.583000000    -2.463000000     1.949000000
O     3.426000000    -4.195000000     1.783000000
