17
-95.60657
C     1.984000000    -1.818000000    -1.144000000
H     2.832000000    -1.858000000    -1.823000000
C     1.400000000    -0.573000000    -0.864000000
H     1.757000000     0.372000000    -1.266000000
C     0.325000000    -0.533000000     0.032000000
C    -0.266000000     0.786000000     0.257000000
H    -1.200000000     0.785000000    -0.309000000
H    -0.503000000     0.907000000     1.316000000
H     0.339000000     1.654000000    -0.015000000
C    -0.137000000    -1.651000000     0.601000000
H    -1.035000000    -1.638000000     1.213000000
C     0.447000000    -2.921000000     0.292000000
H     0.040000000    -3.807000000     0.772000000
C     1.476000000    -2.966000000    -0.627000000
C     2.095000000    -4.304000000    -0.892000000
O     1.450000000    -5.296000000    -0.716000000
O     3.287000000    -4.315000000    -1.149000000
