17
-95.26655
C     0.469000000    -2.528000000    -0.447000000
H    -0.020000000    -3.493000000    -0.340000000
C    -0.310000000    -1.400000000    -0.150000000
H    -1.350000000    -1.518000000     0.144000000
C     0.231000000    -0.114000000    -0.218000000
C    -0.628000000     1.110000000    -0.071000000
H    -0.506000000     1.885000000    -0.829000000
H    -1.698000000     0.894000000    -0.120000000
H    -0.656000000     1.493000000     0.952000000
C     1.581000000     0.017000000    -0.600000000
H     2.067000000     0.984000000    -0.697000000
C     2.354000000    -1.149000000    -0.879000000
H     3.374000000    -0.990000000    -1.219000000
C     1.798000000    -2.453000000    -0.784000000
C     2.635000000    -3.714000000    -1.123000000
O     3.559000000    -3.669000000    -1.883000000
O     2.476000000    -4.668000000    -0.399000000
