17
-96.58066
C    -0.346000000    -2.627000000     0.117000000
H    -1.025000000    -3.429000000     0.394000000
C    -0.884000000    -1.285000000     0.067000000
H    -1.949000000    -1.204000000     0.267000000
C    -0.051000000    -0.226000000    -0.226000000
C    -0.584000000     1.168000000    -0.351000000
H    -0.026000000     1.935000000     0.190000000
H    -0.557000000     1.438000000    -1.409000000
H    -1.656000000     1.107000000    -0.151000000
C     1.328000000    -0.459000000    -0.403000000
H     2.099000000     0.298000000    -0.527000000
C     1.836000000    -1.736000000    -0.308000000
H     2.902000000    -1.867000000    -0.474000000
C     0.962000000    -2.821000000    -0.054000000
C     1.555000000    -4.173000000    -0.111000000
O     2.762000000    -4.225000000    -0.206000000
O     0.876000000    -5.214000000     0.113000000
