17
-91.93296
C     0.170000000    -2.667000000    -0.706000000
H    -0.249000000    -3.640000000    -0.951000000
C    -0.582000000    -1.545000000    -0.771000000
H    -1.651000000    -1.578000000    -0.961000000
C     0.064000000    -0.334000000    -0.453000000
C    -0.719000000     0.942000000    -0.410000000
H    -0.870000000     1.327000000    -1.421000000
H    -1.625000000     0.700000000     0.149000000
H    -0.182000000     1.726000000     0.128000000
C     1.378000000    -0.309000000    -0.052000000
H     1.859000000     0.636000000     0.186000000
C     2.125000000    -1.427000000    -0.092000000
H     3.194000000    -1.314000000     0.073000000
C     1.578000000    -2.675000000    -0.404000000
C     2.468000000    -3.842000000    -0.563000000
O     3.605000000    -3.897000000    -0.044000000
O     1.927000000    -4.853000000    -0.933000000
