17
-84.91485
C     0.503000000    -3.317000000     0.706000000
H    -0.156000000    -4.170000000     0.851000000
C    -0.091000000    -2.059000000     0.756000000
H    -1.080000000    -1.831000000     1.144000000
C     0.529000000    -0.997000000     0.223000000
C    -0.038000000     0.408000000     0.200000000
H    -0.141000000     0.740000000     1.235000000
H     0.531000000     1.105000000    -0.418000000
H    -1.016000000     0.289000000    -0.271000000
C     1.865000000    -1.076000000    -0.239000000
H     2.417000000    -0.230000000    -0.640000000
C     2.424000000    -2.297000000    -0.278000000
H     3.428000000    -2.404000000    -0.683000000
C     1.784000000    -3.519000000     0.135000000
C     2.457000000    -4.834000000    -0.066000000
O     3.487000000    -4.971000000    -0.732000000
O     2.048000000    -5.777000000     0.502000000
