17
-94.72102
C    -0.452000000    -2.604000000    -0.382000000
H    -1.151000000    -3.435000000    -0.332000000
C    -0.940000000    -1.291000000    -0.231000000
H    -1.988000000    -1.021000000    -0.124000000
C    -0.084000000    -0.181000000    -0.236000000
C    -0.748000000     1.189000000    -0.185000000
H    -0.890000000     1.547000000     0.837000000
H    -0.157000000     1.909000000    -0.754000000
H    -1.695000000     1.174000000    -0.729000000
C     1.305000000    -0.394000000    -0.435000000
H     2.025000000     0.418000000    -0.369000000
C     1.813000000    -1.669000000    -0.502000000
H     2.900000000    -1.637000000    -0.493000000
C     0.957000000    -2.790000000    -0.529000000
C     1.509000000    -4.151000000    -0.740000000
O     2.691000000    -4.287000000    -0.954000000
O     0.818000000    -5.143000000    -0.487000000
