17
-94.59894
C    -0.047000000    -2.418000000    -0.766000000
H    -0.613000000    -3.301000000    -1.050000000
C    -0.654000000    -1.185000000    -0.471000000
H    -1.735000000    -1.114000000    -0.553000000
C     0.135000000    -0.032000000    -0.190000000
C    -0.492000000     1.308000000     0.081000000
H     0.247000000     2.112000000     0.093000000
H    -1.168000000     1.561000000    -0.739000000
H    -0.954000000     1.305000000     1.070000000
C     1.549000000    -0.104000000    -0.206000000
H     2.154000000     0.728000000     0.144000000
C     2.132000000    -1.319000000    -0.505000000
H     3.206000000    -1.480000000    -0.454000000
C     1.345000000    -2.450000000    -0.802000000
C     2.072000000    -3.766000000    -1.091000000
O     3.241000000    -3.947000000    -0.880000000
O     1.354000000    -4.759000000    -1.141000000
