17
-101.28056
C    -0.193000000    -2.305000000    -0.853000000
H    -0.787000000    -3.099000000    -1.299000000
C    -0.700000000    -1.034000000    -0.493000000
H    -1.780000000    -0.916000000    -0.525000000
C     0.140000000     0.005000000    -0.120000000
C    -0.405000000     1.336000000     0.197000000
H    -0.055000000     2.112000000    -0.488000000
H    -1.490000000     1.317000000     0.317000000
H     0.053000000     1.628000000     1.144000000
C     1.473000000    -0.281000000     0.257000000
H     2.123000000     0.450000000     0.731000000
C     2.031000000    -1.529000000    -0.144000000
H     3.106000000    -1.682000000    -0.102000000
C     1.192000000    -2.455000000    -0.765000000
C     1.827000000    -3.758000000    -1.258000000
O     3.088000000    -3.824000000    -1.243000000
O     1.076000000    -4.666000000    -1.656000000
