17
-100.61417
C    -0.457000000    -2.990000000     0.024000000
H    -1.144000000    -3.795000000     0.272000000
C    -0.873000000    -1.678000000     0.152000000
H    -1.922000000    -1.429000000     0.291000000
C     0.046000000    -0.623000000    -0.024000000
C    -0.432000000     0.803000000    -0.091000000
H     0.357000000     1.553000000    -0.181000000
H    -1.137000000     0.981000000    -0.905000000
H    -0.961000000     1.150000000     0.800000000
C     1.359000000    -0.914000000    -0.498000000
H     2.122000000    -0.184000000    -0.755000000
C     1.758000000    -2.223000000    -0.595000000
H     2.763000000    -2.500000000    -0.904000000
C     0.833000000    -3.272000000    -0.392000000
C     1.293000000    -4.742000000    -0.448000000
O     2.280000000    -5.049000000    -1.086000000
O     0.514000000    -5.578000000     0.019000000
