17
-96.99753
C    -0.414000000    -2.416000000    -0.492000000
H    -1.090000000    -3.263000000    -0.584000000
C    -0.844000000    -1.108000000    -0.233000000
H    -1.893000000    -0.835000000    -0.152000000
C     0.089000000    -0.058000000    -0.209000000
C    -0.449000000     1.329000000    -0.120000000
H    -0.132000000     2.019000000    -0.904000000
H    -1.526000000     1.436000000     0.026000000
H    -0.004000000     1.854000000     0.727000000
C     1.477000000    -0.285000000    -0.260000000
H     2.154000000     0.558000000    -0.150000000
C     1.893000000    -1.616000000    -0.502000000
H     2.958000000    -1.803000000    -0.619000000
C     0.950000000    -2.704000000    -0.593000000
C     1.350000000    -4.126000000    -0.957000000
O     2.525000000    -4.337000000    -1.213000000
O     0.611000000    -5.099000000    -0.839000000
