17
-98.53902
C     0.984000000    -2.698000000    -1.117000000
H     0.522000000    -3.622000000    -1.454000000
C     0.185000000    -1.608000000    -0.751000000
H    -0.884000000    -1.758000000    -0.877000000
C     0.674000000    -0.433000000    -0.189000000
C    -0.169000000     0.698000000     0.297000000
H    -1.061000000     0.834000000    -0.319000000
H    -0.417000000     0.426000000     1.325000000
H     0.453000000     1.595000000     0.269000000
C     2.062000000    -0.342000000     0.008000000
H     2.467000000     0.582000000     0.412000000
C     2.857000000    -1.469000000    -0.228000000
H     3.891000000    -1.390000000     0.097000000
C     2.352000000    -2.636000000    -0.770000000
C     3.148000000    -3.920000000    -0.939000000
O     4.381000000    -3.840000000    -0.853000000
O     2.663000000    -4.988000000    -1.274000000
