17
-90.73663
C    -0.208000000    -2.640000000    -0.522000000
H    -0.824000000    -3.535000000    -0.572000000
C    -0.698000000    -1.315000000    -0.398000000
H    -1.776000000    -1.191000000    -0.459000000
C     0.165000000    -0.236000000    -0.162000000
C    -0.374000000     1.080000000     0.132000000
H     0.101000000     1.822000000    -0.513000000
H    -1.465000000     1.132000000     0.115000000
H    -0.175000000     1.304000000     1.183000000
C     1.526000000    -0.481000000    -0.262000000
H     2.210000000     0.331000000    -0.029000000
C     1.985000000    -1.742000000    -0.665000000
H     3.040000000    -1.986000000    -0.764000000
C     1.169000000    -2.857000000    -0.567000000
C     1.729000000    -4.305000000    -0.723000000
O     2.879000000    -4.612000000    -0.594000000
O     0.923000000    -5.200000000    -0.843000000
