17
-96.61914
C     0.861000000    -2.895000000    -0.859000000
H     0.204000000    -3.717000000    -1.132000000
C     0.256000000    -1.720000000    -0.670000000
H    -0.830000000    -1.658000000    -0.669000000
C     0.962000000    -0.512000000    -0.509000000
C     0.229000000     0.766000000    -0.470000000
H    -0.729000000     0.611000000     0.030000000
H     0.869000000     1.473000000     0.061000000
H     0.056000000     1.188000000    -1.463000000
C     2.360000000    -0.559000000    -0.593000000
H     2.949000000     0.351000000    -0.669000000
C     2.983000000    -1.781000000    -0.776000000
H     4.068000000    -1.833000000    -0.824000000
C     2.246000000    -2.976000000    -0.863000000
C     2.947000000    -4.324000000    -1.119000000
O     4.160000000    -4.331000000    -1.042000000
O     2.368000000    -5.397000000    -1.438000000
