17
-88.40637
C    -0.140000000    -3.034000000    -0.752000000
H    -0.811000000    -3.872000000    -0.923000000
C    -0.637000000    -1.811000000    -0.419000000
H    -1.717000000    -1.714000000    -0.501000000
C     0.156000000    -0.694000000    -0.109000000
C    -0.609000000     0.639000000    -0.005000000
H    -1.672000000     0.412000000    -0.112000000
H    -0.444000000     1.123000000     0.960000000
H    -0.351000000     1.292000000    -0.841000000
C     1.556000000    -0.752000000    -0.152000000
H     2.219000000     0.070000000     0.106000000
C     2.042000000    -1.955000000    -0.602000000
H     3.110000000    -2.070000000    -0.770000000
C     1.268000000    -3.148000000    -0.869000000
C     1.895000000    -4.401000000    -1.155000000
O     3.083000000    -4.536000000    -0.980000000
O     1.251000000    -5.348000000    -1.542000000
