17
-100.40755
C    -0.107000000    -2.507000000    -0.918000000
H    -0.712000000    -3.406000000    -1.002000000
C    -0.708000000    -1.346000000    -0.432000000
H    -1.790000000    -1.266000000    -0.368000000
C     0.013000000    -0.169000000    -0.055000000
C    -0.555000000     1.127000000     0.451000000
H    -0.749000000     1.133000000     1.526000000
H    -0.022000000     2.032000000     0.152000000
H    -1.535000000     1.286000000    -0.003000000
C     1.406000000    -0.255000000    -0.137000000
H     2.051000000     0.543000000     0.220000000
C     2.012000000    -1.406000000    -0.639000000
H     3.098000000    -1.418000000    -0.696000000
C     1.317000000    -2.526000000    -1.094000000
C     2.051000000    -3.755000000    -1.465000000
O     3.257000000    -3.704000000    -1.725000000
O     1.408000000    -4.822000000    -1.510000000
