17
-95.71497
C    -0.586000000    -2.471000000    -0.283000000
H    -1.356000000    -3.179000000    -0.576000000
C    -0.938000000    -1.122000000    -0.266000000
H    -1.952000000    -0.872000000    -0.567000000
C    -0.034000000    -0.161000000     0.054000000
C    -0.434000000     1.318000000     0.018000000
H    -1.508000000     1.358000000    -0.171000000
H    -0.211000000     1.910000000     0.908000000
H    -0.069000000     1.786000000    -0.898000000
C     1.242000000    -0.588000000     0.490000000
H     2.045000000     0.108000000     0.718000000
C     1.621000000    -1.890000000     0.403000000
H     2.641000000    -2.151000000     0.675000000
C     0.697000000    -2.865000000    -0.018000000
C     1.128000000    -4.294000000    -0.232000000
O     2.143000000    -4.575000000    -0.833000000
O     0.477000000    -5.196000000     0.274000000
