17
-94.49358
C    -0.438000000    -2.247000000     0.149000000
H    -1.098000000    -3.103000000     0.264000000
C    -0.984000000    -0.961000000     0.076000000
H    -2.067000000    -0.874000000     0.036000000
C    -0.218000000     0.141000000    -0.024000000
C    -0.797000000     1.512000000    -0.070000000
H    -0.911000000     1.930000000    -1.072000000
H    -1.799000000     1.351000000     0.334000000
H    -0.261000000     2.243000000     0.539000000
C     1.184000000     0.030000000    -0.060000000
H     1.786000000     0.910000000    -0.274000000
C     1.761000000    -1.274000000    -0.056000000
H     2.838000000    -1.419000000    -0.050000000
C     0.929000000    -2.376000000     0.141000000
C     1.514000000    -3.738000000     0.185000000
O     2.723000000    -3.934000000     0.243000000
O     0.809000000    -4.735000000     0.305000000
