17
-85.86340
C     0.744000000    -3.332000000    -0.055000000
H     0.234000000    -4.266000000    -0.280000000
C    -0.027000000    -2.105000000     0.057000000
H    -1.100000000    -2.023000000    -0.095000000
C     0.591000000    -0.867000000     0.141000000
C    -0.261000000     0.407000000     0.131000000
H    -1.165000000     0.251000000    -0.461000000
H    -0.473000000     0.737000000     1.150000000
H     0.298000000     1.223000000    -0.333000000
C     1.926000000    -0.846000000     0.372000000
H     2.370000000     0.143000000     0.457000000
C     2.716000000    -2.025000000     0.375000000
H     3.803000000    -2.026000000     0.417000000
C     2.133000000    -3.288000000     0.155000000
C     3.017000000    -4.501000000     0.112000000
O     4.162000000    -4.405000000     0.411000000
O     2.597000000    -5.587000000    -0.112000000
