17
-95.51597
C    -0.296000000    -1.437000000     1.949000000
H    -1.097000000    -1.824000000     2.573000000
C    -0.484000000    -0.482000000     0.966000000
H    -1.496000000    -0.110000000     0.828000000
C     0.592000000     0.095000000     0.257000000
C     0.456000000     1.245000000    -0.753000000
H     1.483000000     1.555000000    -0.954000000
H     0.179000000     0.913000000    -1.756000000
H    -0.156000000     2.067000000    -0.377000000
C     1.882000000    -0.453000000     0.468000000
H     2.748000000    -0.153000000    -0.116000000
C     2.035000000    -1.396000000     1.466000000
H     3.039000000    -1.758000000     1.670000000
C     0.974000000    -1.919000000     2.276000000
C     1.221000000    -2.963000000     3.361000000
O     2.372000000    -3.405000000     3.563000000
O     0.272000000    -3.578000000     3.772000000
