17
-85.94818
C     0.954000000    -1.945000000     1.774000000
H     1.184000000    -1.961000000     2.836000000
C     0.558000000    -0.707000000     1.259000000
H     0.392000000     0.121000000     1.944000000
C     0.364000000    -0.551000000    -0.123000000
C    -0.006000000     0.860000000    -0.642000000
H     0.905000000     1.454000000    -0.740000000
H    -0.589000000     0.884000000    -1.566000000
H    -0.536000000     1.480000000     0.085000000
C     0.550000000    -1.622000000    -1.013000000
H     0.511000000    -1.473000000    -2.089000000
C     0.888000000    -2.875000000    -0.451000000
H     0.980000000    -3.743000000    -1.099000000
C     1.085000000    -2.996000000     0.881000000
C     1.417000000    -4.310000000     1.461000000
O     1.138000000    -5.250000000     0.807000000
O     1.632000000    -4.470000000     2.633000000
