17
-101.06143
C     1.587000000    -2.405000000     0.117000000
H     2.554000000    -2.899000000     0.166000000
C     1.455000000    -1.081000000     0.499000000
H     2.307000000    -0.463000000     0.772000000
C     0.221000000    -0.484000000     0.387000000
C    -0.030000000     0.979000000     0.718000000
H     0.864000000     1.432000000     1.152000000
H    -0.336000000     1.438000000    -0.224000000
H    -0.786000000     1.121000000     1.494000000
C    -0.934000000    -1.259000000     0.198000000
H    -1.899000000    -0.771000000     0.093000000
C    -0.803000000    -2.598000000    -0.184000000
H    -1.694000000    -3.174000000    -0.420000000
C     0.471000000    -3.198000000    -0.152000000
C     0.647000000    -4.648000000    -0.583000000
O    -0.332000000    -5.382000000    -0.464000000
O     1.714000000    -4.994000000    -1.022000000
