17
-85.37010
C     1.028000000    -1.450000000     2.326000000
H     0.760000000    -1.681000000     3.354000000
C     0.544000000    -0.344000000     1.787000000
H     0.137000000     0.350000000     2.517000000
C     0.526000000    -0.104000000     0.422000000
C    -0.155000000     1.166000000    -0.168000000
H    -0.159000000     1.961000000     0.581000000
H     0.182000000     1.697000000    -1.061000000
H    -1.183000000     0.892000000    -0.411000000
C     1.110000000    -1.089000000    -0.382000000
H     1.151000000    -1.076000000    -1.468000000
C     1.535000000    -2.302000000     0.152000000
H     1.955000000    -3.069000000    -0.493000000
C     1.605000000    -2.433000000     1.520000000
C     1.741000000    -3.784000000     2.136000000
O     1.795000000    -4.785000000     1.396000000
O     1.611000000    -3.982000000     3.340000000
