17
-82.82416
C     0.609000000    -2.294000000     1.856000000
H     0.435000000    -2.795000000     2.805000000
C     0.373000000    -0.935000000     1.662000000
H     0.140000000    -0.434000000     2.598000000
C     0.300000000    -0.314000000     0.446000000
C     0.082000000     1.144000000     0.278000000
H    -0.718000000     1.362000000    -0.434000000
H    -0.286000000     1.606000000     1.196000000
H     0.971000000     1.685000000    -0.054000000
C     0.824000000    -1.033000000    -0.617000000
H     0.953000000    -0.598000000    -1.605000000
C     1.036000000    -2.403000000    -0.466000000
H     1.368000000    -3.038000000    -1.283000000
C     0.874000000    -3.047000000     0.775000000
C     0.965000000    -4.536000000     0.873000000
O     1.069000000    -5.215000000    -0.086000000
O     0.780000000    -5.058000000     1.914000000
