17
-90.42653
C    -1.051000000    -2.105000000     1.630000000
H    -1.336000000    -2.346000000     2.651000000
C    -0.974000000    -0.728000000     1.286000000
H    -1.360000000     0.020000000     1.974000000
C    -0.434000000    -0.382000000     0.056000000
C    -0.333000000     1.100000000    -0.425000000
H    -0.790000000     1.299000000    -1.396000000
H    -0.707000000     1.641000000     0.447000000
H     0.685000000     1.459000000    -0.256000000
C     0.091000000    -1.312000000    -0.752000000
H     0.567000000    -0.958000000    -1.663000000
C     0.005000000    -2.659000000    -0.443000000
H     0.505000000    -3.434000000    -1.017000000
C    -0.547000000    -3.101000000     0.771000000
C    -0.572000000    -4.592000000     0.998000000
O    -0.107000000    -5.366000000     0.184000000
O    -1.144000000    -5.055000000     1.992000000
