17
-94.73844
C     0.203000000    -1.292000000     2.509000000
H    -0.028000000    -1.307000000     3.571000000
C     0.018000000    -0.150000000     1.772000000
H    -0.377000000     0.659000000     2.381000000
C     0.344000000    -0.147000000     0.402000000
C     0.065000000     1.107000000    -0.442000000
H     0.005000000     1.995000000     0.189000000
H     0.793000000     1.398000000    -1.202000000
H    -0.957000000     0.977000000    -0.806000000
C     0.827000000    -1.285000000    -0.234000000
H     1.081000000    -1.165000000    -1.284000000
C     1.117000000    -2.426000000     0.549000000
H     1.605000000    -3.197000000    -0.043000000
C     0.759000000    -2.435000000     1.926000000
C     0.857000000    -3.579000000     2.807000000
O     1.564000000    -4.501000000     2.385000000
O     0.183000000    -3.649000000     3.853000000
