17
-94.48503
C     0.334000000    -1.678000000     2.081000000
H     0.161000000    -1.716000000     3.154000000
C     0.271000000    -0.388000000     1.494000000
H     0.023000000     0.458000000     2.130000000
C     0.460000000    -0.315000000     0.076000000
C     0.169000000     1.037000000    -0.599000000
H     1.105000000     1.342000000    -1.071000000
H    -0.625000000     0.828000000    -1.319000000
H    -0.085000000     1.689000000     0.239000000
C     0.708000000    -1.442000000    -0.731000000
H     0.846000000    -1.373000000    -1.807000000
C     0.703000000    -2.712000000    -0.075000000
H     0.846000000    -3.672000000    -0.563000000
C     0.593000000    -2.809000000     1.341000000
C     0.921000000    -4.105000000     2.008000000
O     1.582000000    -4.919000000     1.427000000
O     0.638000000    -4.287000000     3.231000000
