17
-94.22623
C    -0.064000000    -2.397000000     1.707000000
H    -0.390000000    -2.684000000     2.704000000
C    -0.460000000    -1.133000000     1.355000000
H    -1.075000000    -0.521000000     2.009000000
C    -0.149000000    -0.686000000     0.049000000
C    -0.501000000     0.672000000    -0.353000000
H    -0.871000000     1.220000000     0.516000000
H     0.426000000     1.181000000    -0.626000000
H    -1.283000000     0.659000000    -1.114000000
C     0.651000000    -1.485000000    -0.814000000
H     0.904000000    -1.195000000    -1.831000000
C     0.899000000    -2.808000000    -0.453000000
H     1.322000000    -3.480000000    -1.196000000
C     0.536000000    -3.286000000     0.770000000
C     0.877000000    -4.696000000     1.111000000
O     1.299000000    -5.498000000     0.302000000
O     0.723000000    -5.098000000     2.266000000
