17
-98.36729
C     0.770000000    -2.065000000     2.321000000
H     0.695000000    -2.071000000     3.405000000
C     0.474000000    -0.817000000     1.706000000
H     0.162000000     0.064000000     2.261000000
C     0.556000000    -0.666000000     0.313000000
C     0.316000000     0.697000000    -0.294000000
H     0.690000000     1.424000000     0.430000000
H     0.951000000     0.765000000    -1.180000000
H    -0.682000000     0.874000000    -0.700000000
C     1.000000000    -1.745000000    -0.453000000
H     1.178000000    -1.491000000    -1.495000000
C     1.325000000    -2.932000000     0.173000000
H     1.703000000    -3.749000000    -0.436000000
C     1.243000000    -3.116000000     1.567000000
C     1.557000000    -4.378000000     2.291000000
O     2.236000000    -5.178000000     1.641000000
O     1.277000000    -4.567000000     3.463000000
