17
-97.80089
C    -1.559000000    -1.550000000     1.544000000
H    -2.519000000    -2.047000000     1.429000000
C    -1.268000000    -0.656000000     0.507000000
H    -2.068000000    -0.540000000    -0.219000000
C    -0.053000000     0.023000000     0.612000000
C     0.326000000     0.904000000    -0.508000000
H    -0.528000000     1.427000000    -0.943000000
H     1.134000000     1.617000000    -0.327000000
H     0.734000000     0.262000000    -1.291000000
C     0.921000000    -0.392000000     1.527000000
H     1.905000000     0.056000000     1.421000000
C     0.609000000    -1.349000000     2.509000000
H     1.409000000    -1.753000000     3.123000000
C    -0.654000000    -1.896000000     2.555000000
C    -0.981000000    -3.008000000     3.538000000
O    -0.115000000    -3.480000000     4.215000000
O    -2.143000000    -3.422000000     3.534000000
