17
-98.30397
C     1.763000000    -2.013000000    -1.119000000
H     2.747000000    -2.182000000    -1.549000000
C     1.319000000    -0.726000000    -0.846000000
H     1.900000000     0.103000000    -1.242000000
C     0.168000000    -0.489000000    -0.177000000
C    -0.308000000     0.910000000     0.015000000
H    -0.684000000     1.140000000     1.014000000
H     0.479000000     1.643000000    -0.169000000
H    -1.096000000     1.168000000    -0.696000000
C    -0.614000000    -1.590000000     0.208000000
H    -1.491000000    -1.470000000     0.839000000
C    -0.159000000    -2.875000000     0.019000000
H    -0.626000000    -3.752000000     0.459000000
C     0.998000000    -3.117000000    -0.661000000
C     1.507000000    -4.536000000    -0.814000000
O     0.740000000    -5.476000000    -0.716000000
O     2.643000000    -4.681000000    -1.225000000
