17
-80.02468
C    -1.292000000    -1.577000000     1.772000000
H    -2.220000000    -2.126000000     1.909000000
C    -1.180000000    -0.677000000     0.679000000
H    -2.002000000    -0.690000000    -0.032000000
C    -0.034000000     0.053000000     0.521000000
C     0.037000000     0.946000000    -0.660000000
H     0.817000000     0.656000000    -1.367000000
H    -0.957000000     1.198000000    -1.037000000
H     0.287000000     1.929000000    -0.255000000
C     1.070000000    -0.168000000     1.408000000
H     2.048000000     0.270000000     1.227000000
C     0.942000000    -1.028000000     2.529000000
H     1.732000000    -1.034000000     3.274000000
C    -0.257000000    -1.769000000     2.700000000
C    -0.342000000    -2.827000000     3.776000000
O     0.631000000    -3.200000000     4.342000000
O    -1.284000000    -3.525000000     3.970000000
