17
-100.59442
C    -0.848000000    -1.205000000     2.410000000
H    -1.779000000    -1.496000000     2.891000000
C    -0.855000000    -0.569000000     1.240000000
H    -1.776000000    -0.489000000     0.668000000
C     0.304000000     0.006000000     0.744000000
C     0.233000000     0.825000000    -0.468000000
H     0.687000000     0.359000000    -1.346000000
H    -0.788000000     1.099000000    -0.742000000
H     0.812000000     1.740000000    -0.327000000
C     1.504000000    -0.130000000     1.471000000
H     2.444000000     0.282000000     1.112000000
C     1.515000000    -0.856000000     2.654000000
H     2.435000000    -1.043000000     3.202000000
C     0.336000000    -1.475000000     3.109000000
C     0.417000000    -2.320000000     4.382000000
O     1.503000000    -2.785000000     4.770000000
O    -0.676000000    -2.688000000     4.825000000
