17
-98.24354
C     2.062000000    -3.062000000    -0.282000000
H     3.046000000    -3.375000000    -0.621000000
C     1.745000000    -1.722000000    -0.197000000
H     2.437000000    -0.905000000    -0.383000000
C     0.474000000    -1.254000000     0.105000000
C     0.170000000     0.249000000     0.090000000
H     0.037000000     0.552000000     1.131000000
H     1.013000000     0.821000000    -0.302000000
H    -0.738000000     0.434000000    -0.488000000
C    -0.582000000    -2.191000000     0.362000000
H    -1.515000000    -1.761000000     0.718000000
C    -0.251000000    -3.584000000     0.183000000
H    -1.014000000    -4.317000000     0.430000000
C     1.026000000    -4.000000000    -0.224000000
C     1.237000000    -5.430000000    -0.654000000
O     0.254000000    -6.165000000    -0.499000000
O     2.287000000    -5.867000000    -1.164000000
