17
-95.90715
C    -1.280000000    -1.460000000     1.139000000
H    -2.177000000    -2.051000000     1.311000000
C    -1.301000000    -0.382000000     0.175000000
H    -2.208000000    -0.235000000    -0.406000000
C    -0.116000000     0.260000000    -0.102000000
C     0.015000000     1.533000000    -1.006000000
H     0.742000000     1.359000000    -1.801000000
H    -0.923000000     1.773000000    -1.510000000
H     0.280000000     2.425000000    -0.435000000
C     1.086000000    -0.154000000     0.533000000
H     2.074000000     0.271000000     0.371000000
C     1.044000000    -1.169000000     1.491000000
H     1.973000000    -1.374000000     2.017000000
C    -0.146000000    -1.786000000     1.874000000
C    -0.222000000    -2.700000000     3.106000000
O     0.710000000    -2.856000000     3.826000000
O    -1.332000000    -3.137000000     3.389000000
