17
-96.44187
C    -1.107000000    -2.518000000     0.660000000
H    -1.971000000    -3.178000000     0.683000000
C    -1.194000000    -1.280000000     0.044000000
H    -2.115000000    -0.992000000    -0.457000000
C    -0.096000000    -0.368000000     0.058000000
C    -0.282000000     0.955000000    -0.559000000
H    -0.722000000     0.820000000    -1.549000000
H    -0.864000000     1.527000000     0.167000000
H     0.699000000     1.404000000    -0.727000000
C     1.022000000    -0.602000000     0.878000000
H     1.793000000     0.153000000     1.010000000
C     1.048000000    -1.853000000     1.577000000
H     1.867000000    -2.094000000     2.250000000
C     0.044000000    -2.822000000     1.402000000
C     0.011000000    -4.003000000     2.288000000
O     1.010000000    -4.642000000     2.594000000
O    -1.109000000    -4.470000000     2.619000000
