17
-94.48372
C    -1.434000000    -1.734000000     1.423000000
H    -2.343000000    -2.329000000     1.455000000
C    -1.261000000    -0.794000000     0.394000000
H    -1.897000000    -0.938000000    -0.476000000
C    -0.176000000     0.106000000     0.422000000
C     0.113000000     0.951000000    -0.735000000
H    -0.714000000     1.651000000    -0.866000000
H     0.991000000     1.571000000    -0.542000000
H     0.191000000     0.397000000    -1.673000000
C     0.776000000     0.019000000     1.499000000
H     1.623000000     0.695000000     1.574000000
C     0.589000000    -0.969000000     2.511000000
H     1.322000000    -0.992000000     3.313000000
C    -0.555000000    -1.816000000     2.472000000
C    -0.859000000    -2.805000000     3.527000000
O    -0.159000000    -2.828000000     4.507000000
O    -1.829000000    -3.549000000     3.488000000
