17
-93.60206
C    -0.768000000    -2.363000000     0.637000000
H    -1.556000000    -3.111000000     0.608000000
C    -0.931000000    -1.151000000    -0.085000000
H    -1.825000000    -0.978000000    -0.679000000
C     0.038000000    -0.152000000     0.018000000
C    -0.190000000     1.160000000    -0.678000000
H     0.749000000     1.657000000    -0.932000000
H    -0.724000000     0.953000000    -1.607000000
H    -0.755000000     1.821000000    -0.018000000
C     1.163000000    -0.380000000     0.771000000
H     1.884000000     0.425000000     0.885000000
C     1.388000000    -1.612000000     1.437000000
H     2.367000000    -1.839000000     1.852000000
C     0.392000000    -2.537000000     1.419000000
C     0.478000000    -3.775000000     2.293000000
O     1.221000000    -3.824000000     3.217000000
O    -0.342000000    -4.635000000     2.156000000
