17
-95.39982
C    -1.425000000    -2.467000000     0.795000000
H    -2.220000000    -3.209000000     0.790000000
C    -1.609000000    -1.322000000     0.040000000
H    -2.537000000    -1.031000000    -0.446000000
C    -0.533000000    -0.376000000     0.008000000
C    -0.651000000     0.834000000    -0.836000000
H    -0.542000000     1.635000000    -0.102000000
H     0.093000000     0.996000000    -1.618000000
H    -1.549000000     0.798000000    -1.456000000
C     0.576000000    -0.577000000     0.769000000
H     1.365000000     0.167000000     0.848000000
C     0.779000000    -1.736000000     1.502000000
H     1.720000000    -1.895000000     2.021000000
C    -0.187000000    -2.690000000     1.494000000
C    -0.080000000    -3.878000000     2.342000000
O     0.876000000    -3.899000000     3.152000000
O    -0.709000000    -4.905000000     2.016000000
