17
-95.18738
C    -1.853000000    -1.671000000     0.852000000
H    -2.765000000    -2.237000000     0.681000000
C    -1.358000000    -0.859000000    -0.145000000
H    -1.818000000    -0.790000000    -1.128000000
C    -0.132000000    -0.183000000     0.064000000
C     0.435000000     0.742000000    -1.007000000
H     1.498000000     0.960000000    -0.881000000
H     0.285000000     0.369000000    -2.022000000
H    -0.139000000     1.671000000    -1.031000000
C     0.460000000    -0.196000000     1.278000000
H     1.404000000     0.308000000     1.469000000
C    -0.044000000    -1.004000000     2.297000000
H     0.467000000    -1.013000000     3.257000000
C    -1.283000000    -1.657000000     2.142000000
C    -1.821000000    -2.559000000     3.251000000
O    -1.329000000    -2.478000000     4.345000000
O    -2.800000000    -3.200000000     3.055000000
