17
-96.26046
C    -1.393000000    -2.155000000     1.934000000
H    -2.318000000    -2.579000000     2.316000000
C    -1.541000000    -1.069000000     1.057000000
H    -2.526000000    -0.688000000     0.803000000
C    -0.407000000    -0.435000000     0.525000000
C    -0.536000000     0.617000000    -0.585000000
H     0.084000000     0.448000000    -1.468000000
H    -1.586000000     0.593000000    -0.882000000
H    -0.382000000     1.620000000    -0.184000000
C     0.860000000    -0.944000000     0.866000000
H     1.702000000    -0.392000000     0.458000000
C     1.008000000    -2.052000000     1.645000000
H     1.991000000    -2.483000000     1.819000000
C    -0.112000000    -2.676000000     2.224000000
C     0.042000000    -3.797000000     3.207000000
O     1.140000000    -4.212000000     3.446000000
O    -0.892000000    -4.206000000     3.885000000
