17
-98.63702
C    -2.031000000    -1.522000000     1.964000000
H    -3.042000000    -1.920000000     1.963000000
C    -1.642000000    -0.810000000     0.836000000
H    -2.373000000    -0.623000000     0.053000000
C    -0.339000000    -0.288000000     0.666000000
C     0.097000000     0.528000000    -0.505000000
H     1.177000000     0.685000000    -0.497000000
H    -0.078000000    -0.039000000    -1.421000000
H    -0.325000000     1.536000000    -0.486000000
C     0.446000000    -0.393000000     1.808000000
H     1.398000000     0.128000000     1.871000000
C     0.123000000    -1.187000000     2.984000000
H     0.784000000    -1.351000000     3.832000000
C    -1.109000000    -1.788000000     3.036000000
C    -1.480000000    -2.638000000     4.241000000
O    -0.704000000    -2.681000000     5.185000000
O    -2.434000000    -3.454000000     4.101000000
