17
-96.96299
C    -1.760000000    -1.839000000     1.561000000
H    -2.784000000    -2.179000000     1.693000000
C    -1.405000000    -0.784000000     0.741000000
H    -2.099000000    -0.247000000     0.100000000
C    -0.087000000    -0.359000000     0.610000000
C     0.245000000     0.884000000    -0.162000000
H    -0.012000000     1.721000000     0.491000000
H     1.286000000     1.175000000    -0.313000000
H    -0.205000000     0.931000000    -1.155000000
C     0.888000000    -0.947000000     1.388000000
H     1.920000000    -0.607000000     1.376000000
C     0.571000000    -2.022000000     2.201000000
H     1.364000000    -2.555000000     2.720000000
C    -0.750000000    -2.450000000     2.312000000
C    -1.181000000    -3.637000000     3.143000000
O    -0.327000000    -4.318000000     3.700000000
O    -2.314000000    -4.054000000     3.038000000
