17
-91.37751
C    -1.271000000    -1.555000000     2.140000000
H    -2.164000000    -1.821000000     2.700000000
C    -1.276000000    -0.753000000     1.007000000
H    -2.176000000    -0.443000000     0.482000000
C    -0.063000000    -0.372000000     0.340000000
C    -0.118000000     0.685000000    -0.725000000
H    -1.188000000     0.844000000    -0.877000000
H     0.325000000     1.584000000    -0.292000000
H     0.412000000     0.524000000    -1.666000000
C     1.163000000    -0.749000000     0.934000000
H     2.127000000    -0.377000000     0.597000000
C     1.127000000    -1.562000000     2.118000000
H     2.021000000    -1.783000000     2.696000000
C    -0.049000000    -1.912000000     2.719000000
C    -0.098000000    -2.829000000     3.939000000
O     0.973000000    -3.349000000     4.161000000
O    -1.162000000    -3.177000000     4.309000000
