17
-92.52971
C    -1.702000000    -1.943000000     1.666000000
H    -2.773000000    -2.096000000     1.774000000
C    -1.311000000    -0.835000000     0.909000000
H    -1.961000000    -0.201000000     0.311000000
C     0.046000000    -0.560000000     0.855000000
C     0.643000000     0.584000000    -0.051000000
H     0.063000000     1.506000000     0.019000000
H     1.637000000     0.822000000     0.332000000
H     0.628000000     0.319000000    -1.110000000
C     1.010000000    -1.484000000     1.410000000
H     2.082000000    -1.343000000     1.300000000
C     0.496000000    -2.536000000     2.161000000
H     1.220000000    -3.235000000     2.570000000
C    -0.855000000    -2.781000000     2.398000000
C    -1.289000000    -3.925000000     3.288000000
O    -0.502000000    -4.589000000     3.976000000
O    -2.470000000    -4.214000000     3.439000000
