17
-88.52990
C    -1.317000000    -1.699000000     1.804000000
H    -2.356000000    -1.904000000     2.048000000
C    -1.105000000    -0.679000000     0.839000000
H    -1.972000000    -0.236000000     0.355000000
C     0.189000000    -0.292000000     0.475000000
C     0.353000000     0.791000000    -0.529000000
H     1.069000000     1.535000000    -0.174000000
H     0.686000000     0.357000000    -1.474000000
H    -0.586000000     1.348000000    -0.490000000
C     1.288000000    -0.965000000     0.988000000
H     2.274000000    -0.647000000     0.662000000
C     1.103000000    -2.035000000     1.850000000
H     1.988000000    -2.518000000     2.255000000
C    -0.230000000    -2.471000000     2.260000000
C    -0.353000000    -3.713000000     3.075000000
O     0.585000000    -4.404000000     3.233000000
O    -1.428000000    -4.100000000     3.462000000
