17
-97.42658
C    -2.113000000    -2.397000000     0.706000000
H    -3.106000000    -2.729000000     0.414000000
C    -1.675000000    -1.203000000     0.300000000
H    -2.341000000    -0.537000000    -0.242000000
C    -0.353000000    -0.787000000     0.485000000
C     0.191000000     0.450000000    -0.181000000
H     1.147000000     0.842000000     0.173000000
H     0.359000000     0.082000000    -1.196000000
H    -0.554000000     1.246000000    -0.239000000
C     0.449000000    -1.621000000     1.238000000
H     1.493000000    -1.318000000     1.262000000
C     0.000000000    -2.824000000     1.737000000
H     0.617000000    -3.521000000     2.299000000
C    -1.293000000    -3.231000000     1.432000000
C    -1.886000000    -4.530000000     1.894000000
O    -1.048000000    -5.319000000     2.359000000
O    -3.055000000    -4.865000000     1.654000000
