17
-91.46529
C    -1.297000000    -2.368000000     0.008000000
H    -2.209000000    -2.852000000    -0.332000000
C    -0.955000000    -1.111000000    -0.489000000
H    -1.601000000    -0.696000000    -1.258000000
C     0.220000000    -0.525000000    -0.064000000
C     0.490000000     0.903000000    -0.486000000
H    -0.397000000     1.497000000    -0.257000000
H     1.197000000     1.474000000     0.119000000
H     0.799000000     0.998000000    -1.529000000
C     0.936000000    -1.101000000     0.975000000
H     1.738000000    -0.535000000     1.441000000
C     0.524000000    -2.326000000     1.520000000
H     0.990000000    -2.656000000     2.445000000
C    -0.568000000    -3.008000000     1.039000000
C    -0.895000000    -4.350000000     1.599000000
O    -0.241000000    -4.809000000     2.513000000
O    -1.604000000    -5.026000000     0.937000000
