17
-96.72369
C    -1.014000000    -2.561000000     0.533000000
H    -1.845000000    -3.212000000     0.270000000
C    -0.994000000    -1.232000000     0.072000000
H    -1.854000000    -0.794000000    -0.429000000
C     0.117000000    -0.382000000     0.334000000
C     0.309000000     0.954000000    -0.196000000
H     1.264000000     1.301000000     0.203000000
H     0.543000000     0.895000000    -1.261000000
H    -0.441000000     1.689000000     0.104000000
C     1.168000000    -0.962000000     1.053000000
H     2.043000000    -0.361000000     1.286000000
C     1.150000000    -2.302000000     1.545000000
H     1.969000000    -2.682000000     2.150000000
C    -0.021000000    -3.089000000     1.382000000
C    -0.065000000    -4.541000000     1.950000000
O     0.871000000    -4.984000000     2.603000000
O    -1.112000000    -5.136000000     1.843000000
