17
-95.24346
C    -1.314000000    -2.295000000    -0.063000000
H    -2.153000000    -2.869000000    -0.449000000
C    -1.128000000    -0.908000000    -0.285000000
H    -1.709000000    -0.362000000    -1.024000000
C    -0.128000000    -0.164000000     0.328000000
C     0.136000000     1.300000000     0.031000000
H    -0.641000000     1.894000000     0.515000000
H     1.084000000     1.717000000     0.377000000
H     0.043000000     1.425000000    -1.050000000
C     0.830000000    -0.779000000     1.142000000
H     1.665000000    -0.213000000     1.548000000
C     0.711000000    -2.160000000     1.397000000
H     1.493000000    -2.633000000     1.986000000
C    -0.362000000    -2.911000000     0.837000000
C    -0.506000000    -4.326000000     1.188000000
O     0.265000000    -4.972000000     1.874000000
O    -1.495000000    -4.902000000     0.740000000
