17
-96.41902
C    -1.064000000    -2.445000000    -0.520000000
H    -1.948000000    -2.940000000    -0.914000000
C    -1.048000000    -1.028000000    -0.618000000
H    -1.909000000    -0.470000000    -0.976000000
C     0.035000000    -0.298000000    -0.034000000
C     0.119000000     1.203000000    -0.108000000
H    -0.310000000     1.720000000     0.753000000
H     1.158000000     1.511000000    -0.237000000
H    -0.373000000     1.512000000    -1.033000000
C     1.038000000    -1.037000000     0.618000000
H     1.830000000    -0.447000000     1.072000000
C     1.005000000    -2.463000000     0.703000000
H     1.815000000    -3.043000000     1.136000000
C    -0.033000000    -3.212000000     0.118000000
C    -0.124000000    -4.701000000     0.186000000
O     0.701000000    -5.296000000     0.849000000
O    -0.780000000    -5.213000000    -0.699000000
