17
-87.06240
C    -1.133000000    -2.468000000    -0.024000000
H    -1.715000000    -3.272000000    -0.468000000
C    -1.232000000    -1.111000000    -0.427000000
H    -2.068000000    -0.838000000    -1.066000000
C    -0.389000000    -0.168000000     0.138000000
C    -0.488000000     1.235000000    -0.423000000
H    -0.367000000     2.005000000     0.342000000
H     0.310000000     1.428000000    -1.143000000
H    -1.433000000     1.413000000    -0.939000000
C     0.536000000    -0.515000000     1.094000000
H     1.240000000     0.158000000     1.577000000
C     0.570000000    -1.866000000     1.486000000
H     1.292000000    -2.136000000     2.253000000
C    -0.230000000    -2.875000000     1.004000000
C    -0.049000000    -4.235000000     1.399000000
O     0.747000000    -4.506000000     2.233000000
O    -0.504000000    -5.166000000     0.756000000
