17
-95.99141
C     1.764000000    -2.685000000     0.960000000
H     1.598000000    -3.759000000     0.948000000
C     0.758000000    -1.846000000     0.608000000
H    -0.219000000    -2.244000000     0.345000000
C     0.929000000    -0.476000000     0.505000000
C    -0.223000000     0.316000000    -0.141000000
H    -0.504000000    -0.221000000    -1.050000000
H    -1.107000000     0.522000000     0.467000000
H     0.157000000     1.284000000    -0.473000000
C     2.155000000    -0.001000000     0.956000000
H     2.267000000     1.073000000     0.832000000
C     3.135000000    -0.825000000     1.559000000
H     4.080000000    -0.476000000     1.968000000
C     2.961000000    -2.243000000     1.463000000
C     4.026000000    -3.144000000     2.028000000
O     5.164000000    -2.700000000     2.173000000
O     3.712000000    -4.244000000     2.491000000
