17
-91.02346
C    -1.729000000    -1.834000000    -1.932000000
H    -2.726000000    -2.018000000    -2.324000000
C    -1.426000000    -0.691000000    -1.184000000
H    -2.163000000     0.102000000    -1.092000000
C    -0.241000000    -0.524000000    -0.496000000
C     0.034000000     0.657000000     0.454000000
H    -0.495000000     0.543000000     1.402000000
H     1.105000000     0.830000000     0.580000000
H    -0.379000000     1.578000000     0.037000000
C     0.731000000    -1.477000000    -0.772000000
H     1.740000000    -1.357000000    -0.386000000
C     0.481000000    -2.634000000    -1.552000000
H     1.281000000    -3.342000000    -1.752000000
C    -0.736000000    -2.816000000    -2.119000000
C    -1.188000000    -4.057000000    -2.993000000
O    -0.328000000    -4.874000000    -3.287000000
O    -2.297000000    -4.311000000    -3.292000000
