17
-84.34108
C    -2.010000000    -1.896000000    -1.183000000
H    -3.016000000    -1.790000000    -1.579000000
C    -1.493000000    -0.784000000    -0.548000000
H    -2.185000000     0.027000000    -0.333000000
C    -0.208000000    -0.702000000    -0.297000000
C     0.354000000     0.499000000     0.332000000
H     1.426000000     0.360000000     0.490000000
H     0.195000000     1.392000000    -0.276000000
H    -0.232000000     0.747000000     1.219000000
C     0.734000000    -1.688000000    -0.640000000
H     1.812000000    -1.597000000    -0.530000000
C     0.142000000    -2.837000000    -1.095000000
H     0.752000000    -3.646000000    -1.488000000
C    -1.180000000    -2.954000000    -1.429000000
C    -1.654000000    -4.088000000    -2.278000000
O    -0.878000000    -4.801000000    -2.908000000
O    -2.820000000    -4.323000000    -2.222000000
