17
-98.79008
C    -1.130000000    -2.287000000    -0.965000000
H    -2.030000000    -2.794000000    -1.301000000
C    -1.129000000    -0.914000000    -0.854000000
H    -2.091000000    -0.408000000    -0.872000000
C    -0.025000000    -0.189000000    -0.403000000
C     0.035000000     1.348000000    -0.255000000
H     0.126000000     1.659000000     0.787000000
H     0.988000000     1.690000000    -0.664000000
H    -0.835000000     1.780000000    -0.754000000
C     1.126000000    -0.894000000    -0.071000000
H     1.969000000    -0.407000000     0.411000000
C     1.121000000    -2.281000000    -0.120000000
H     2.074000000    -2.751000000     0.112000000
C     0.036000000    -3.015000000    -0.589000000
C     0.047000000    -4.522000000    -0.728000000
O     1.067000000    -5.090000000    -0.299000000
O    -0.935000000    -5.146000000    -1.077000000
