17
-96.66025
C    -1.788000000    -2.400000000    -0.320000000
H    -2.807000000    -2.777000000    -0.340000000
C    -1.614000000    -1.030000000    -0.324000000
H    -2.487000000    -0.392000000    -0.443000000
C    -0.320000000    -0.443000000    -0.220000000
C    -0.284000000     1.068000000    -0.144000000
H    -0.115000000     1.398000000     0.883000000
H     0.531000000     1.548000000    -0.688000000
H    -1.192000000     1.567000000    -0.488000000
C     0.776000000    -1.268000000    -0.131000000
H     1.770000000    -0.830000000    -0.162000000
C     0.622000000    -2.654000000     0.025000000
H     1.510000000    -3.224000000     0.283000000
C    -0.672000000    -3.243000000    -0.100000000
C    -0.805000000    -4.765000000     0.005000000
O     0.095000000    -5.423000000     0.400000000
O    -1.920000000    -5.269000000    -0.150000000
