17
-92.31957
C    -1.519000000    -1.841000000    -1.011000000
H    -2.520000000    -2.127000000    -1.324000000
C    -1.265000000    -0.477000000    -0.879000000
H    -2.042000000     0.283000000    -0.898000000
C     0.049000000    -0.071000000    -0.534000000
C     0.394000000     1.344000000    -0.169000000
H    -0.474000000     1.958000000     0.082000000
H     1.135000000     1.400000000     0.631000000
H     0.865000000     1.852000000    -1.012000000
C     1.022000000    -1.021000000    -0.234000000
H     2.024000000    -0.754000000     0.090000000
C     0.748000000    -2.389000000    -0.353000000
H     1.547000000    -3.079000000    -0.092000000
C    -0.596000000    -2.810000000    -0.696000000
C    -0.893000000    -4.307000000    -0.581000000
O    -0.183000000    -5.010000000     0.090000000
O    -1.919000000    -4.768000000    -0.985000000
