17
-89.77565
C    -1.436000000    -1.778000000     0.245000000
H    -2.289000000    -2.379000000    -0.061000000
C    -1.196000000    -0.489000000    -0.209000000
H    -1.950000000    -0.016000000    -0.833000000
C    -0.046000000     0.158000000     0.121000000
C     0.265000000     1.516000000    -0.388000000
H    -0.586000000     1.966000000    -0.902000000
H     0.460000000     2.197000000     0.442000000
H     1.056000000     1.449000000    -1.138000000
C     0.895000000    -0.488000000     0.865000000
H     1.802000000     0.030000000     1.166000000
C     0.675000000    -1.748000000     1.336000000
H     1.422000000    -2.189000000     1.992000000
C    -0.450000000    -2.463000000     0.958000000
C    -0.644000000    -3.900000000     1.311000000
O     0.023000000    -4.462000000     2.122000000
O    -1.340000000    -4.597000000     0.608000000
