17
-97.26878
C    -0.917000000    -2.830000000     0.415000000
H    -1.659000000    -3.516000000     0.014000000
C    -0.886000000    -1.528000000    -0.077000000
H    -1.658000000    -1.179000000    -0.757000000
C     0.052000000    -0.583000000     0.350000000
C     0.111000000     0.774000000    -0.264000000
H    -0.580000000     0.791000000    -1.109000000
H    -0.099000000     1.631000000     0.380000000
H     1.098000000     0.848000000    -0.724000000
C     1.006000000    -1.016000000     1.316000000
H     1.792000000    -0.289000000     1.509000000
C     0.904000000    -2.287000000     1.877000000
H     1.696000000    -2.538000000     2.579000000
C    -0.058000000    -3.237000000     1.465000000
C    -0.213000000    -4.664000000     2.022000000
O     0.579000000    -5.028000000     2.863000000
O    -1.087000000    -5.493000000     1.653000000
