17
-88.57392
C    -1.776000000    -2.747000000     0.685000000
H    -2.762000000    -3.119000000     0.416000000
C    -1.281000000    -1.584000000     0.092000000
H    -1.898000000    -0.904000000    -0.490000000
C    -0.002000000    -1.139000000     0.299000000
C     0.675000000     0.077000000    -0.281000000
H     1.433000000     0.524000000     0.364000000
H     1.115000000    -0.328000000    -1.195000000
H    -0.089000000     0.792000000    -0.592000000
C     0.758000000    -1.830000000     1.172000000
H     1.736000000    -1.462000000     1.471000000
C     0.338000000    -2.994000000     1.773000000
H     1.072000000    -3.495000000     2.399000000
C    -0.966000000    -3.465000000     1.601000000
C    -1.459000000    -4.737000000     2.246000000
O    -0.641000000    -5.446000000     2.831000000
O    -2.595000000    -5.237000000     2.221000000
