17
-94.34938
C    -1.074000000    -2.225000000    -0.395000000
H    -1.670000000    -2.774000000    -1.120000000
C    -0.911000000    -0.887000000    -0.547000000
H    -1.447000000    -0.341000000    -1.319000000
C    -0.153000000    -0.274000000     0.429000000
C     0.046000000     1.228000000     0.451000000
H     1.025000000     1.515000000     0.840000000
H    -0.025000000     1.606000000    -0.571000000
H    -0.735000000     1.657000000     1.082000000
C     0.460000000    -0.960000000     1.454000000
H     1.067000000    -0.369000000     2.136000000
C     0.236000000    -2.298000000     1.619000000
H     0.523000000    -2.858000000     2.505000000
C    -0.602000000    -2.978000000     0.673000000
C    -0.650000000    -4.531000000     0.747000000
O    -0.255000000    -5.038000000     1.728000000
O    -0.940000000    -5.142000000    -0.285000000
