17
-91.43073
C    -0.436000000    -2.666000000    -0.172000000
H    -1.168000000    -3.366000000    -0.567000000
C    -0.823000000    -1.331000000    -0.331000000
H    -1.803000000    -1.111000000    -0.747000000
C     0.105000000    -0.335000000     0.111000000
C    -0.275000000     1.046000000     0.058000000
H    -1.214000000     1.099000000    -0.497000000
H    -0.423000000     1.452000000     1.061000000
H     0.371000000     1.767000000    -0.448000000
C     1.298000000    -0.687000000     0.708000000
H     1.900000000     0.168000000     1.005000000
C     1.734000000    -2.044000000     0.736000000
H     2.731000000    -2.191000000     1.143000000
C     0.847000000    -3.063000000     0.343000000
C     1.087000000    -4.495000000     0.521000000
O     2.203000000    -4.979000000     0.308000000
O     0.184000000    -5.322000000     0.807000000
