17
-85.70053
C    -0.886000000    -2.025000000    -1.187000000
H    -1.300000000    -2.502000000    -2.071000000
C    -0.836000000    -0.654000000    -0.980000000
H    -1.162000000    -0.017000000    -1.798000000
C    -0.215000000    -0.081000000     0.130000000
C    -0.027000000     1.442000000     0.239000000
H     0.754000000     1.766000000    -0.452000000
H    -0.967000000     1.907000000    -0.065000000
H     0.296000000     1.769000000     1.230000000
C     0.377000000    -0.926000000     1.076000000
H     1.036000000    -0.543000000     1.852000000
C     0.356000000    -2.311000000     0.878000000
H     0.741000000    -3.011000000     1.616000000
C    -0.336000000    -2.878000000    -0.222000000
C    -0.261000000    -4.362000000    -0.453000000
O     0.643000000    -4.931000000     0.098000000
O    -0.810000000    -4.955000000    -1.295000000
