17
-95.70104
C    -0.221000000    -2.161000000    -2.060000000
H    -0.963000000    -2.473000000    -2.791000000
C    -0.390000000    -0.819000000    -1.611000000
H    -1.222000000    -0.204000000    -1.943000000
C     0.465000000    -0.335000000    -0.662000000
C     0.288000000     1.015000000     0.061000000
H    -0.734000000     1.395000000     0.007000000
H     0.588000000     0.826000000     1.094000000
H     0.963000000     1.745000000    -0.389000000
C     1.406000000    -1.255000000    -0.115000000
H     1.913000000    -0.845000000     0.754000000
C     1.530000000    -2.581000000    -0.588000000
H     2.277000000    -3.250000000    -0.170000000
C     0.745000000    -3.016000000    -1.595000000
C     0.962000000    -4.381000000    -2.113000000
O     2.121000000    -4.880000000    -2.101000000
O    -0.023000000    -4.876000000    -2.648000000
