17
-85.36860
C    -0.897000000    -1.866000000    -1.742000000
H    -1.663000000    -2.062000000    -2.489000000
C    -0.936000000    -0.629000000    -1.158000000
H    -1.824000000    -0.034000000    -1.353000000
C     0.014000000    -0.237000000    -0.196000000
C    -0.143000000     1.050000000     0.484000000
H     0.585000000     1.793000000     0.149000000
H    -1.089000000     1.550000000     0.268000000
H     0.012000000     1.008000000     1.564000000
C     1.031000000    -1.099000000     0.132000000
H     1.779000000    -0.822000000     0.870000000
C     1.157000000    -2.261000000    -0.587000000
H     2.006000000    -2.919000000    -0.419000000
C     0.227000000    -2.699000000    -1.532000000
C     0.305000000    -3.993000000    -2.135000000
O     1.165000000    -4.822000000    -1.939000000
O    -0.664000000    -4.344000000    -2.726000000
