17
-99.21839
C    -0.369000000    -1.857000000    -2.101000000
H    -0.923000000    -2.067000000    -3.012000000
C    -0.637000000    -0.680000000    -1.393000000
H    -1.457000000     0.007000000    -1.585000000
C     0.202000000    -0.315000000    -0.341000000
C     0.010000000     1.054000000     0.312000000
H     0.447000000     1.844000000    -0.302000000
H    -1.023000000     1.231000000     0.619000000
H     0.599000000     1.044000000     1.232000000
C     1.317000000    -1.118000000     0.077000000
H     1.971000000    -0.746000000     0.862000000
C     1.476000000    -2.368000000    -0.528000000
H     2.137000000    -3.113000000    -0.094000000
C     0.621000000    -2.705000000    -1.625000000
C     0.815000000    -4.115000000    -2.211000000
O     1.473000000    -4.942000000    -1.583000000
O     0.266000000    -4.429000000    -3.240000000
