17
-91.28129
C    -0.511000000    -2.964000000     0.094000000
H    -1.099000000    -3.800000000    -0.277000000
C    -0.834000000    -1.640000000    -0.243000000
H    -1.701000000    -1.509000000    -0.885000000
C    -0.077000000    -0.561000000     0.156000000
C    -0.322000000     0.725000000    -0.497000000
H     0.582000000     1.057000000    -1.013000000
H    -1.091000000     0.668000000    -1.270000000
H    -0.630000000     1.451000000     0.258000000
C     1.052000000    -0.811000000     1.078000000
H     1.684000000    -0.023000000     1.479000000
C     1.403000000    -2.125000000     1.367000000
H     2.315000000    -2.207000000     1.953000000
C     0.628000000    -3.218000000     0.872000000
C     1.101000000    -4.673000000     1.146000000
O     2.214000000    -4.827000000     1.511000000
O     0.424000000    -5.590000000     0.774000000
