17
-96.03687
C    -0.297000000    -1.797000000    -1.774000000
H    -0.811000000    -2.119000000    -2.677000000
C    -0.548000000    -0.516000000    -1.256000000
H    -1.229000000     0.153000000    -1.776000000
C     0.194000000    -0.177000000    -0.140000000
C     0.082000000     1.299000000     0.306000000
H    -0.817000000     1.819000000    -0.030000000
H     0.150000000     1.411000000     1.390000000
H     0.924000000     1.848000000    -0.122000000
C     1.049000000    -1.062000000     0.531000000
H     1.603000000    -0.735000000     1.407000000
C     1.151000000    -2.338000000     0.034000000
H     1.766000000    -2.992000000     0.647000000
C     0.574000000    -2.711000000    -1.197000000
C     0.798000000    -4.098000000    -1.651000000
O     1.112000000    -4.964000000    -0.833000000
O     0.542000000    -4.422000000    -2.779000000
