17
-88.37295
C    -0.429000000    -2.648000000    -1.376000000
H    -1.018000000    -3.283000000    -2.033000000
C    -0.794000000    -1.343000000    -1.181000000
H    -1.593000000    -0.861000000    -1.738000000
C    -0.150000000    -0.599000000    -0.223000000
C    -0.444000000     0.916000000    -0.053000000
H    -1.392000000     1.045000000    -0.579000000
H    -0.413000000     1.271000000     0.979000000
H     0.297000000     1.446000000    -0.655000000
C     0.864000000    -1.199000000     0.534000000
H     1.321000000    -0.648000000     1.352000000
C     1.186000000    -2.548000000     0.401000000
H     1.947000000    -2.922000000     1.081000000
C     0.489000000    -3.303000000    -0.595000000
C     0.782000000    -4.797000000    -0.655000000
O     1.548000000    -5.296000000     0.118000000
O     0.483000000    -5.350000000    -1.658000000
