17
-99.51755
C    -0.259000000    -2.587000000    -0.825000000
H    -0.714000000    -3.281000000    -1.527000000
C    -0.659000000    -1.256000000    -0.797000000
H    -1.360000000    -0.917000000    -1.556000000
C    -0.010000000    -0.434000000     0.100000000
C    -0.310000000     1.122000000     0.129000000
H    -0.600000000     1.413000000     1.141000000
H     0.595000000     1.625000000    -0.216000000
H    -1.202000000     1.356000000    -0.457000000
C     0.840000000    -0.959000000     1.093000000
H     1.176000000    -0.293000000     1.883000000
C     1.239000000    -2.300000000     1.056000000
H     1.921000000    -2.698000000     1.802000000
C     0.670000000    -3.138000000     0.089000000
C     1.052000000    -4.610000000     0.063000000
O     1.839000000    -5.062000000     0.897000000
O     0.727000000    -5.321000000    -0.888000000
