17
-96.07976
C    -0.119000000    -2.755000000    -0.921000000
H    -0.560000000    -3.316000000    -1.740000000
C    -0.575000000    -1.420000000    -0.637000000
H    -1.332000000    -1.087000000    -1.342000000
C     0.017000000    -0.624000000     0.344000000
C    -0.345000000     0.846000000     0.493000000
H     0.472000000     1.484000000     0.150000000
H    -1.274000000     1.128000000    -0.007000000
H    -0.531000000     1.059000000     1.548000000
C     1.100000000    -1.134000000     1.002000000
H     1.592000000    -0.609000000     1.816000000
C     1.466000000    -2.432000000     0.908000000
H     2.370000000    -2.733000000     1.431000000
C     0.852000000    -3.275000000    -0.076000000
C     1.370000000    -4.706000000    -0.192000000
O     2.301000000    -5.091000000     0.464000000
O     0.779000000    -5.415000000    -1.004000000
