17
-84.57403
C     0.387000000    -1.647000000    -2.009000000
H     0.364000000    -1.784000000    -3.087000000
C    -0.094000000    -0.452000000    -1.438000000
H    -0.478000000     0.319000000    -2.101000000
C    -0.173000000    -0.207000000    -0.141000000
C    -0.561000000     1.181000000     0.369000000
H    -1.600000000     1.440000000     0.155000000
H    -0.563000000     1.253000000     1.459000000
H     0.052000000     1.962000000    -0.087000000
C     0.313000000    -1.216000000     0.701000000
H     0.330000000    -0.952000000     1.755000000
C     0.879000000    -2.402000000     0.186000000
H     1.280000000    -3.215000000     0.787000000
C     0.852000000    -2.617000000    -1.223000000
C     1.435000000    -3.899000000    -1.909000000
O     1.961000000    -4.718000000    -1.226000000
O     1.635000000    -4.028000000    -3.124000000
