17
-94.77841
C     0.584000000    -2.262000000    -0.974000000
H     0.327000000    -3.002000000    -1.728000000
C    -0.133000000    -1.089000000    -0.930000000
H    -0.870000000    -0.754000000    -1.656000000
C     0.099000000    -0.191000000     0.096000000
C    -0.730000000     1.063000000     0.343000000
H    -0.284000000     1.914000000    -0.176000000
H    -1.741000000     0.938000000    -0.050000000
H    -0.786000000     1.310000000     1.405000000
C     1.067000000    -0.428000000     1.074000000
H     1.384000000     0.212000000     1.893000000
C     1.836000000    -1.615000000     0.983000000
H     2.636000000    -1.760000000     1.704000000
C     1.631000000    -2.481000000    -0.066000000
C     2.475000000    -3.732000000    -0.206000000
O     3.342000000    -3.936000000     0.554000000
O     2.338000000    -4.411000000    -1.222000000
