17
-97.38792
C    -0.309000000    -1.965000000    -1.115000000
H    -0.539000000    -2.617000000    -1.953000000
C    -0.705000000    -0.608000000    -1.009000000
H    -1.314000000    -0.134000000    -1.775000000
C    -0.312000000     0.200000000     0.073000000
C    -0.712000000     1.664000000     0.145000000
H     0.142000000     2.294000000    -0.111000000
H    -1.450000000     1.996000000    -0.588000000
H    -1.071000000     1.962000000     1.132000000
C     0.624000000    -0.340000000     0.988000000
H     1.139000000     0.318000000     1.684000000
C     1.017000000    -1.690000000     0.943000000
H     1.790000000    -2.069000000     1.607000000
C     0.581000000    -2.518000000    -0.135000000
C     0.979000000    -3.999000000    -0.147000000
O     1.709000000    -4.363000000     0.768000000
O     0.626000000    -4.717000000    -1.014000000
