17
-90.79291
C     1.547000000    -1.826000000    -1.675000000
H     2.436000000    -1.829000000    -2.301000000
C     1.212000000    -0.603000000    -1.108000000
H     1.723000000     0.327000000    -1.347000000
C     0.093000000    -0.497000000    -0.270000000
C    -0.285000000     0.671000000     0.479000000
H     0.565000000     1.018000000     1.070000000
H    -0.600000000     1.460000000    -0.208000000
H    -1.104000000     0.470000000     1.172000000
C    -0.609000000    -1.652000000     0.100000000
H    -1.485000000    -1.600000000     0.742000000
C    -0.198000000    -2.918000000    -0.378000000
H    -0.642000000    -3.805000000     0.066000000
C     0.868000000    -3.033000000    -1.281000000
C     1.216000000    -4.450000000    -1.691000000
O     0.404000000    -5.297000000    -1.400000000
O     2.004000000    -4.613000000    -2.597000000
