17
-91.22196
C     0.379000000    -2.393000000    -1.244000000
H     0.213000000    -2.750000000    -2.257000000
C    -0.105000000    -1.101000000    -0.911000000
H    -0.731000000    -0.684000000    -1.695000000
C     0.295000000    -0.490000000     0.253000000
C    -0.237000000     0.827000000     0.613000000
H     0.358000000     1.640000000     0.191000000
H    -1.243000000     0.898000000     0.194000000
H    -0.353000000     0.979000000     1.688000000
C     1.053000000    -1.207000000     1.187000000
H     1.342000000    -0.757000000     2.133000000
C     1.526000000    -2.482000000     0.872000000
H     2.293000000    -2.962000000     1.475000000
C     1.122000000    -3.144000000    -0.313000000
C     1.704000000    -4.474000000    -0.631000000
O     2.499000000    -4.935000000     0.122000000
O     1.247000000    -5.161000000    -1.504000000
