17
-85.95538
C     2.168000000    -2.710000000    -0.697000000
H     3.214000000    -2.755000000    -0.987000000
C     1.691000000    -1.435000000    -0.298000000
H     2.325000000    -0.579000000    -0.080000000
C     0.329000000    -1.121000000    -0.065000000
C    -0.094000000     0.257000000     0.418000000
H     0.687000000     0.645000000     1.074000000
H    -0.285000000     1.000000000    -0.359000000
H    -1.045000000     0.283000000     0.954000000
C    -0.552000000    -2.167000000    -0.243000000
H    -1.535000000    -1.962000000     0.173000000
C    -0.076000000    -3.415000000    -0.748000000
H    -0.723000000    -4.288000000    -0.756000000
C     1.267000000    -3.638000000    -1.069000000
C     1.757000000    -4.920000000    -1.789000000
O     0.935000000    -5.839000000    -1.858000000
O     2.874000000    -5.177000000    -2.157000000
