17
-94.68660
C     0.186000000    -2.552000000    -1.000000000
H    -0.269000000    -3.306000000    -1.636000000
C    -0.344000000    -1.271000000    -1.054000000
H    -1.078000000    -1.044000000    -1.824000000
C    -0.117000000    -0.410000000     0.015000000
C    -0.926000000     0.839000000     0.159000000
H    -0.268000000     1.702000000     0.281000000
H    -1.619000000     0.973000000    -0.674000000
H    -1.534000000     0.803000000     1.065000000
C     0.772000000    -0.710000000     1.050000000
H     0.856000000     0.070000000     1.802000000
C     1.511000000    -1.895000000     0.886000000
H     2.259000000    -2.183000000     1.620000000
C     1.171000000    -2.837000000    -0.052000000
C     1.811000000    -4.175000000    -0.047000000
O     2.787000000    -4.390000000     0.618000000
O     1.448000000    -5.040000000    -0.873000000
