17
-95.28691
C     0.119000000    -2.510000000    -0.978000000
H    -0.265000000    -3.297000000    -1.622000000
C    -0.223000000    -1.192000000    -1.056000000
H    -0.818000000    -0.801000000    -1.877000000
C     0.228000000    -0.201000000    -0.219000000
C    -0.324000000     1.193000000    -0.223000000
H    -0.745000000     1.341000000     0.774000000
H     0.439000000     1.964000000    -0.352000000
H    -1.050000000     1.319000000    -1.029000000
C     1.110000000    -0.585000000     0.766000000
H     1.342000000     0.222000000     1.456000000
C     1.418000000    -1.912000000     0.967000000
H     2.162000000    -2.265000000     1.677000000
C     0.976000000    -2.883000000     0.079000000
C     1.414000000    -4.365000000     0.273000000
O     2.273000000    -4.624000000     1.113000000
O     0.902000000    -5.252000000    -0.358000000
