17
-90.74270
C     1.683000000    -2.346000000    -0.716000000
H     2.728000000    -2.630000000    -0.803000000
C     1.407000000    -1.129000000    -0.104000000
H     2.185000000    -0.431000000     0.195000000
C     0.047000000    -0.929000000     0.236000000
C    -0.291000000     0.325000000     0.978000000
H    -0.471000000     1.098000000     0.228000000
H    -1.239000000     0.120000000     1.479000000
H     0.441000000     0.541000000     1.760000000
C    -0.859000000    -1.881000000    -0.029000000
H    -1.874000000    -1.677000000     0.303000000
C    -0.549000000    -3.032000000    -0.793000000
H    -1.337000000    -3.718000000    -1.091000000
C     0.767000000    -3.354000000    -0.985000000
C     1.228000000    -4.599000000    -1.709000000
O     0.371000000    -5.409000000    -2.155000000
O     2.354000000    -4.716000000    -2.118000000
