17
-95.47853
C    -0.377000000    -2.492000000    -1.079000000
H    -0.900000000    -3.102000000    -1.811000000
C    -0.544000000    -1.130000000    -1.086000000
H    -1.173000000    -0.684000000    -1.852000000
C     0.163000000    -0.350000000    -0.188000000
C    -0.232000000     1.111000000     0.026000000
H     0.311000000     1.761000000    -0.663000000
H    -1.305000000     1.224000000    -0.143000000
H     0.035000000     1.572000000     0.979000000
C     1.131000000    -0.961000000     0.670000000
H     1.753000000    -0.372000000     1.339000000
C     1.350000000    -2.367000000     0.719000000
H     2.105000000    -2.819000000     1.358000000
C     0.562000000    -3.097000000    -0.235000000
C     0.883000000    -4.557000000    -0.398000000
O     1.647000000    -5.012000000     0.442000000
O     0.189000000    -5.292000000    -1.107000000
