17
-88.38237
C    -0.128000000    -2.439000000    -0.889000000
H    -0.415000000    -3.032000000    -1.753000000
C    -0.630000000    -1.188000000    -0.697000000
H    -1.337000000    -0.720000000    -1.377000000
C    -0.152000000    -0.395000000     0.388000000
C    -0.838000000     0.982000000     0.497000000
H    -0.256000000     1.673000000    -0.117000000
H    -1.889000000     0.925000000     0.206000000
H    -0.877000000     1.205000000     1.565000000
C     0.819000000    -0.814000000     1.249000000
H     1.341000000    -0.163000000     1.945000000
C     1.381000000    -2.076000000     1.092000000
H     2.220000000    -2.265000000     1.757000000
C     0.858000000    -2.877000000     0.029000000
C     1.408000000    -4.188000000    -0.156000000
O     2.429000000    -4.497000000     0.427000000
O     0.883000000    -4.945000000    -0.936000000
