17
-85.77547
C     0.112000000    -2.083000000    -1.549000000
H    -0.373000000    -2.755000000    -2.252000000
C    -0.486000000    -0.864000000    -1.150000000
H    -1.379000000    -0.581000000    -1.702000000
C    -0.127000000    -0.107000000    -0.038000000
C    -1.011000000     0.998000000     0.546000000
H    -0.841000000     1.909000000    -0.031000000
H    -2.043000000     0.664000000     0.428000000
H    -0.783000000     1.238000000     1.587000000
C     0.953000000    -0.637000000     0.652000000
H     1.413000000     0.023000000     1.383000000
C     1.634000000    -1.792000000     0.330000000
H     2.435000000    -2.127000000     0.985000000
C     1.223000000    -2.548000000    -0.828000000
C     1.937000000    -3.872000000    -1.178000000
O     3.110000000    -3.932000000    -0.852000000
O     1.539000000    -4.616000000    -2.004000000
