17
-93.06235
C     0.595000000    -0.893000000    -2.527000000
H     0.167000000    -1.150000000    -3.493000000
C    -0.293000000    -0.521000000    -1.519000000
H    -1.312000000    -0.224000000    -1.756000000
C     0.195000000    -0.307000000    -0.285000000
C    -0.710000000     0.258000000     0.818000000
H    -1.469000000     0.968000000     0.483000000
H    -1.174000000    -0.602000000     1.306000000
H    -0.081000000     0.786000000     1.538000000
C     1.528000000    -0.597000000     0.045000000
H     1.863000000    -0.440000000     1.067000000
C     2.403000000    -0.987000000    -0.945000000
H     3.416000000    -1.221000000    -0.629000000
C     1.920000000    -1.209000000    -2.235000000
C     2.810000000    -1.757000000    -3.324000000
O     3.845000000    -2.233000000    -2.961000000
O     2.544000000    -1.574000000    -4.463000000
