17
-92.58882
C     0.076000000     0.434000000    -2.547000000
H    -0.427000000     0.796000000    -3.440000000
C    -0.513000000     0.590000000    -1.343000000
H    -1.428000000     1.154000000    -1.178000000
C     0.125000000     0.119000000    -0.230000000
C    -0.373000000     0.401000000     1.170000000
H     0.514000000     0.756000000     1.700000000
H    -1.074000000     1.238000000     1.128000000
H    -0.792000000    -0.512000000     1.596000000
C     1.335000000    -0.521000000    -0.371000000
H     1.789000000    -0.965000000     0.512000000
C     1.935000000    -0.776000000    -1.529000000
H     2.877000000    -1.314000000    -1.609000000
C     1.321000000    -0.238000000    -2.692000000
C     1.903000000    -0.511000000    -4.069000000
O     2.995000000    -1.105000000    -4.233000000
O     1.091000000    -0.451000000    -5.001000000
