17
-89.99382
C    -0.416000000     0.643000000    -2.451000000
H    -1.256000000     0.893000000    -3.095000000
C    -0.645000000     0.671000000    -1.078000000
H    -1.538000000     1.086000000    -0.619000000
C     0.323000000     0.203000000    -0.209000000
C     0.180000000     0.393000000     1.214000000
H     0.666000000     1.313000000     1.548000000
H    -0.856000000     0.428000000     1.557000000
H     0.578000000    -0.443000000     1.792000000
C     1.517000000    -0.299000000    -0.744000000
H     2.276000000    -0.711000000    -0.084000000
C     1.804000000    -0.237000000    -2.097000000
H     2.719000000    -0.618000000    -2.541000000
C     0.892000000     0.346000000    -2.984000000
C     1.146000000     0.321000000    -4.430000000
O     2.276000000     0.008000000    -4.830000000
O     0.229000000     0.133000000    -5.230000000
