17
-97.42189
C     0.732000000    -1.564000000    -2.191000000
H     0.397000000    -2.429000000    -2.759000000
C    -0.091000000    -1.099000000    -1.179000000
H    -1.038000000    -1.619000000    -1.061000000
C     0.282000000    -0.005000000    -0.395000000
C    -0.325000000     0.351000000     0.924000000
H     0.268000000     0.866000000     1.683000000
H    -1.208000000     0.989000000     0.857000000
H    -0.672000000    -0.595000000     1.345000000
C     1.538000000     0.579000000    -0.672000000
H     1.973000000     1.379000000    -0.079000000
C     2.347000000     0.146000000    -1.742000000
H     3.293000000     0.617000000    -1.998000000
C     1.938000000    -0.970000000    -2.530000000
C     2.775000000    -1.459000000    -3.668000000
O     3.748000000    -0.727000000    -4.047000000
O     2.709000000    -2.624000000    -4.023000000
