17
-95.42731
C     1.118000000    -1.003000000    -2.231000000
H     0.849000000    -1.605000000    -3.095000000
C     0.201000000    -0.914000000    -1.139000000
H    -0.770000000    -1.383000000    -1.276000000
C     0.473000000    -0.107000000    -0.059000000
C    -0.512000000     0.139000000     1.052000000
H    -1.205000000    -0.687000000     1.225000000
H    -0.037000000     0.137000000     2.035000000
H    -1.120000000     1.045000000     1.002000000
C     1.741000000     0.466000000    -0.006000000
H     1.947000000     1.199000000     0.770000000
C     2.676000000     0.368000000    -1.033000000
H     3.572000000     0.982000000    -1.052000000
C     2.349000000    -0.372000000    -2.181000000
C     3.213000000    -0.224000000    -3.418000000
O     4.278000000     0.328000000    -3.376000000
O     2.883000000    -0.827000000    -4.420000000
