17
-85.82867
C     0.761000000    -1.222000000    -2.371000000
H     0.688000000    -2.003000000    -3.124000000
C    -0.137000000    -1.113000000    -1.255000000
H    -0.974000000    -1.801000000    -1.173000000
C     0.130000000    -0.177000000    -0.230000000
C    -0.818000000    -0.074000000     0.903000000
H    -1.590000000     0.638000000     0.600000000
H    -1.197000000    -0.998000000     1.343000000
H    -0.216000000     0.411000000     1.674000000
C     1.338000000     0.619000000    -0.310000000
H     1.624000000     1.358000000     0.434000000
C     2.150000000     0.524000000    -1.507000000
H     3.086000000     1.076000000    -1.469000000
C     1.875000000    -0.360000000    -2.546000000
C     2.778000000    -0.443000000    -3.708000000
O     3.871000000     0.093000000    -3.843000000
O     2.495000000    -1.157000000    -4.648000000
