17
-94.92173
C     1.024000000    -1.554000000    -1.598000000
H     0.758000000    -2.459000000    -2.139000000
C     0.081000000    -1.199000000    -0.615000000
H    -0.737000000    -1.846000000    -0.309000000
C     0.329000000    -0.044000000     0.094000000
C    -0.788000000     0.577000000     0.974000000
H    -1.717000000     0.006000000     1.034000000
H    -0.394000000     0.705000000     1.984000000
H    -1.033000000     1.553000000     0.549000000
C     1.347000000     0.765000000    -0.261000000
H     1.410000000     1.784000000     0.111000000
C     2.204000000     0.488000000    -1.305000000
H     3.009000000     1.174000000    -1.552000000
C     2.127000000    -0.753000000    -1.968000000
C     3.095000000    -1.113000000    -3.059000000
O     4.007000000    -0.335000000    -3.303000000
O     2.824000000    -2.092000000    -3.723000000
