17
-86.82113
C     1.123000000    -0.976000000    -1.883000000
H     1.082000000    -1.626000000    -2.753000000
C     0.085000000    -0.855000000    -0.943000000
H    -0.711000000    -1.592000000    -0.997000000
C     0.278000000     0.017000000     0.145000000
C    -0.973000000     0.191000000     1.050000000
H    -0.972000000    -0.613000000     1.790000000
H    -0.968000000     1.102000000     1.652000000
H    -1.914000000     0.042000000     0.517000000
C     1.460000000     0.683000000     0.325000000
H     1.500000000     1.315000000     1.209000000
C     2.493000000     0.548000000    -0.586000000
H     3.434000000     1.056000000    -0.392000000
C     2.295000000    -0.250000000    -1.683000000
C     3.301000000    -0.516000000    -2.709000000
O     4.478000000    -0.362000000    -2.481000000
O     3.023000000    -0.832000000    -3.826000000
