17
-98.38703
C     0.600000000    -0.852000000    -2.403000000
H     0.308000000    -1.504000000    -3.222000000
C    -0.363000000    -0.859000000    -1.374000000
H    -1.233000000    -1.509000000    -1.420000000
C    -0.064000000    -0.091000000    -0.232000000
C    -1.074000000     0.120000000     0.825000000
H    -0.551000000    -0.189000000     1.733000000
H    -1.351000000     1.176000000     0.842000000
H    -1.950000000    -0.506000000     0.642000000
C     1.118000000     0.606000000    -0.149000000
H     1.366000000     1.315000000     0.637000000
C     2.021000000     0.627000000    -1.254000000
H     2.905000000     1.256000000    -1.193000000
C     1.767000000    -0.108000000    -2.382000000
C     2.686000000    -0.019000000    -3.622000000
O     3.674000000     0.702000000    -3.582000000
O     2.371000000    -0.600000000    -4.636000000
