17
-95.78089
C     1.140000000    -0.795000000    -2.127000000
H     0.950000000    -1.357000000    -3.038000000
C     0.164000000    -0.736000000    -1.116000000
H    -0.662000000    -1.443000000    -1.116000000
C     0.267000000     0.230000000    -0.146000000
C    -0.758000000     0.324000000     1.005000000
H    -0.415000000    -0.397000000     1.751000000
H    -0.725000000     1.286000000     1.521000000
H    -1.743000000    -0.018000000     0.681000000
C     1.406000000     1.028000000    -0.123000000
H     1.430000000     1.819000000     0.622000000
C     2.365000000     0.897000000    -1.110000000
H     3.284000000     1.462000000    -0.978000000
C     2.260000000    -0.026000000    -2.135000000
C     3.269000000    -0.033000000    -3.243000000
O     4.274000000     0.642000000    -3.079000000
O     3.021000000    -0.490000000    -4.348000000
