17
-94.17528
C     2.256000000    -1.331000000    -0.484000000
H     2.548000000    -2.259000000    -0.969000000
C     0.925000000    -1.051000000    -0.377000000
H     0.212000000    -1.812000000    -0.685000000
C     0.400000000     0.105000000     0.164000000
C    -1.045000000     0.267000000     0.337000000
H    -1.314000000     1.045000000     1.055000000
H    -1.380000000     0.539000000    -0.666000000
H    -1.544000000    -0.648000000     0.662000000
C     1.271000000     0.941000000     0.767000000
H     0.830000000     1.769000000     1.316000000
C     2.638000000     0.827000000     0.560000000
H     3.295000000     1.658000000     0.806000000
C     3.110000000    -0.303000000    -0.073000000
C     4.624000000    -0.531000000    -0.187000000
O     5.442000000     0.337000000     0.152000000
O     5.069000000    -1.624000000    -0.631000000
