17
-96.74667
C     1.991000000    -1.695000000    -0.874000000
H     2.401000000    -2.600000000    -1.315000000
C     0.604000000    -1.399000000    -0.820000000
H    -0.094000000    -2.058000000    -1.330000000
C     0.165000000    -0.276000000    -0.109000000
C    -1.287000000     0.039000000     0.084000000
H    -1.519000000     1.071000000    -0.189000000
H    -1.854000000    -0.526000000    -0.659000000
H    -1.574000000    -0.066000000     1.132000000
C     1.046000000     0.623000000     0.464000000
H     0.614000000     1.465000000     0.999000000
C     2.423000000     0.414000000     0.205000000
H     3.085000000     1.194000000     0.572000000
C     2.891000000    -0.753000000    -0.426000000
C     4.373000000    -1.004000000    -0.685000000
O     5.187000000    -0.151000000    -0.452000000
O     4.798000000    -2.091000000    -1.129000000
