17
-85.39417
C     2.371000000    -1.579000000    -0.822000000
H     2.771000000    -2.439000000    -1.353000000
C     1.039000000    -1.328000000    -0.785000000
H     0.397000000    -2.049000000    -1.286000000
C     0.569000000    -0.241000000    -0.089000000
C    -0.928000000     0.100000000     0.109000000
H    -1.165000000     0.917000000    -0.575000000
H    -1.533000000    -0.741000000    -0.237000000
H    -1.119000000     0.436000000     1.131000000
C     1.468000000     0.654000000     0.477000000
H     1.224000000     1.487000000     1.132000000
C     2.840000000     0.540000000     0.272000000
H     3.563000000     1.270000000     0.628000000
C     3.262000000    -0.694000000    -0.308000000
C     4.761000000    -0.978000000    -0.555000000
O     5.590000000    -0.073000000    -0.523000000
O     5.122000000    -1.931000000    -1.239000000
