17
-96.32435
C     2.707000000    -1.514000000    -0.297000000
H     3.133000000    -2.499000000    -0.475000000
C     1.346000000    -1.373000000    -0.090000000
H     0.768000000    -2.293000000    -0.126000000
C     0.817000000    -0.133000000     0.346000000
C    -0.703000000    -0.024000000     0.412000000
H    -1.069000000     0.677000000    -0.342000000
H    -1.232000000    -0.972000000     0.294000000
H    -0.987000000     0.425000000     1.366000000
C     1.660000000     0.964000000     0.414000000
H     1.264000000     1.920000000     0.746000000
C     3.027000000     0.820000000     0.206000000
H     3.720000000     1.656000000     0.166000000
C     3.589000000    -0.423000000    -0.107000000
C     5.036000000    -0.668000000    -0.383000000
O     5.939000000     0.170000000    -0.154000000
O     5.358000000    -1.743000000    -0.783000000
