17
-90.95832
C     2.393000000    -0.935000000    -1.180000000
H     2.844000000    -1.354000000    -2.076000000
C     1.039000000    -0.778000000    -1.127000000
H     0.388000000    -1.354000000    -1.779000000
C     0.419000000    -0.036000000    -0.114000000
C    -1.046000000    -0.059000000     0.080000000
H    -1.386000000     0.962000000     0.268000000
H    -1.605000000    -0.414000000    -0.789000000
H    -1.437000000    -0.704000000     0.869000000
C     1.290000000     0.716000000     0.719000000
H     0.951000000     1.397000000     1.496000000
C     2.684000000     0.646000000     0.620000000
H     3.368000000     1.219000000     1.241000000
C     3.264000000    -0.321000000    -0.248000000
C     4.838000000    -0.402000000    -0.358000000
O     5.549000000     0.561000000    -0.050000000
O     5.362000000    -1.297000000    -0.955000000
