17
-96.54428
C     2.053000000    -1.020000000    -0.995000000
H     2.317000000    -1.806000000    -1.699000000
C     0.694000000    -0.789000000    -0.806000000
H    -0.050000000    -1.438000000    -1.260000000
C     0.287000000     0.244000000     0.015000000
C    -1.189000000     0.430000000     0.153000000
H    -1.546000000     0.914000000    -0.759000000
H    -1.767000000    -0.492000000     0.245000000
H    -1.460000000     0.937000000     1.082000000
C     1.283000000     1.040000000     0.723000000
H     1.023000000     1.767000000     1.489000000
C     2.644000000     0.695000000     0.550000000
H     3.398000000     1.147000000     1.189000000
C     3.086000000    -0.293000000    -0.357000000
C     4.516000000    -0.501000000    -0.805000000
O     5.323000000     0.429000000    -0.818000000
O     4.835000000    -1.574000000    -1.283000000
