17
-100.51586
C     2.687000000    -1.139000000    -0.782000000
H     3.170000000    -1.941000000    -1.335000000
C     1.346000000    -1.248000000    -0.676000000
H     0.823000000    -2.132000000    -1.032000000
C     0.682000000    -0.224000000    -0.011000000
C    -0.810000000    -0.283000000     0.240000000
H    -1.319000000    -0.845000000    -0.546000000
H    -1.080000000    -0.697000000     1.214000000
H    -1.282000000     0.701000000     0.282000000
C     1.380000000     0.931000000     0.487000000
H     0.893000000     1.779000000     0.962000000
C     2.749000000     0.978000000     0.344000000
H     3.292000000     1.785000000     0.828000000
C     3.432000000    -0.040000000    -0.295000000
C     4.910000000    -0.031000000    -0.418000000
O     5.482000000     1.071000000    -0.195000000
O     5.515000000    -1.023000000    -0.924000000
