17
-96.71092
C     2.132000000    -1.293000000    -0.733000000
H     2.709000000    -1.950000000    -1.378000000
C     0.793000000    -1.047000000    -0.850000000
H     0.166000000    -1.413000000    -1.659000000
C     0.124000000    -0.303000000     0.133000000
C    -1.359000000    -0.170000000     0.164000000
H    -1.753000000    -0.695000000    -0.709000000
H    -1.795000000    -0.472000000     1.118000000
H    -1.697000000     0.854000000    -0.007000000
C     0.856000000     0.402000000     1.088000000
H     0.326000000     0.996000000     1.829000000
C     2.247000000     0.300000000     1.120000000
H     2.793000000     0.900000000     1.844000000
C     2.910000000    -0.493000000     0.143000000
C     4.394000000    -0.559000000     0.144000000
O     5.064000000     0.406000000     0.443000000
O     4.933000000    -1.524000000    -0.425000000
