17
-92.85098
C     2.268000000    -1.208000000    -0.638000000
H     2.788000000    -1.907000000    -1.289000000
C     0.912000000    -1.155000000    -0.604000000
H     0.270000000    -1.686000000    -1.302000000
C     0.221000000    -0.255000000     0.246000000
C    -1.246000000    -0.301000000     0.405000000
H    -1.824000000    -0.970000000    -0.235000000
H    -1.573000000    -0.558000000     1.415000000
H    -1.731000000     0.672000000     0.303000000
C     0.957000000     0.621000000     1.014000000
H     0.483000000     1.294000000     1.724000000
C     2.317000000     0.425000000     1.187000000
H     2.859000000     0.943000000     1.973000000
C     2.957000000    -0.503000000     0.310000000
C     4.470000000    -0.731000000     0.487000000
O     5.145000000     0.020000000     1.171000000
O     5.053000000    -1.506000000    -0.262000000
