17
-90.10848
C     2.494000000    -0.531000000     1.582000000
H     3.515000000    -0.905000000     1.594000000
C     1.709000000    -0.491000000     0.456000000
H     2.210000000    -0.795000000    -0.460000000
C     0.391000000    -0.048000000     0.427000000
C    -0.340000000     0.056000000    -0.902000000
H     0.371000000    -0.131000000    -1.710000000
H    -1.226000000    -0.582000000    -0.897000000
H    -0.645000000     1.093000000    -1.055000000
C    -0.210000000     0.240000000     1.666000000
H    -1.266000000     0.492000000     1.718000000
C     0.479000000     0.211000000     2.829000000
H     0.040000000     0.299000000     3.820000000
C     1.901000000    -0.084000000     2.790000000
C     2.664000000    -0.240000000     4.053000000
O     2.215000000     0.158000000     5.102000000
O     3.765000000    -0.760000000     4.149000000
