17
-93.52212
C     2.153000000    -0.150000000    -1.509000000
H     2.626000000    -0.217000000    -2.485000000
C     0.757000000    -0.348000000    -1.407000000
H     0.182000000    -0.692000000    -2.263000000
C     0.098000000    -0.133000000    -0.168000000
C    -1.343000000    -0.544000000     0.024000000
H    -1.366000000    -1.329000000     0.782000000
H    -2.035000000     0.281000000     0.205000000
H    -1.738000000    -1.065000000    -0.850000000
C     0.847000000     0.259000000     0.910000000
H     0.247000000     0.492000000     1.785000000
C     2.235000000     0.484000000     0.747000000
H     2.759000000     0.796000000     1.648000000
C     2.906000000     0.145000000    -0.398000000
C     4.377000000     0.374000000    -0.587000000
O     5.125000000     0.444000000     0.322000000
O     4.767000000     0.551000000    -1.746000000
