17
-96.17481
C     2.858000000    -0.828000000    -0.714000000
H     3.406000000    -1.320000000    -1.514000000
C     1.481000000    -0.734000000    -0.872000000
H     1.069000000    -1.180000000    -1.773000000
C     0.662000000    -0.257000000     0.167000000
C    -0.834000000    -0.349000000     0.105000000
H    -1.333000000     0.487000000     0.599000000
H    -1.190000000    -0.248000000    -0.923000000
H    -1.148000000    -1.317000000     0.502000000
C     1.296000000     0.132000000     1.373000000
H     0.728000000     0.510000000     2.219000000
C     2.675000000    -0.100000000     1.563000000
H     3.063000000     0.209000000     2.530000000
C     3.489000000    -0.549000000     0.507000000
C     4.952000000    -0.785000000     0.629000000
O     5.550000000    -0.582000000     1.653000000
O     5.455000000    -1.300000000    -0.328000000
