17
-91.32622
C     2.676000000    -0.821000000    -1.184000000
H     3.140000000    -1.259000000    -2.065000000
C     1.239000000    -0.788000000    -1.002000000
H     0.582000000    -0.947000000    -1.854000000
C     0.658000000    -0.376000000     0.166000000
C    -0.843000000    -0.053000000     0.098000000
H    -1.391000000    -0.646000000    -0.637000000
H    -1.369000000    -0.080000000     1.055000000
H    -0.967000000     0.993000000    -0.192000000
C     1.434000000     0.002000000     1.268000000
H     1.030000000     0.452000000     2.171000000
C     2.786000000    -0.114000000     1.126000000
H     3.370000000     0.103000000     2.017000000
C     3.472000000    -0.575000000    -0.035000000
C     4.908000000    -0.957000000    -0.026000000
O     5.572000000    -0.835000000     0.974000000
O     5.483000000    -1.207000000    -1.089000000
