17
-95.08411
C     1.394000000    -2.901000000     0.078000000
H     2.393000000    -3.282000000    -0.115000000
C     1.241000000    -1.583000000     0.438000000
H     2.155000000    -0.998000000     0.379000000
C     0.002000000    -0.968000000     0.450000000
C    -0.059000000     0.501000000     0.688000000
H     0.440000000     0.781000000     1.618000000
H     0.507000000     1.057000000    -0.063000000
H    -1.095000000     0.846000000     0.715000000
C    -1.138000000    -1.805000000     0.377000000
H    -2.102000000    -1.379000000     0.646000000
C    -1.000000000    -3.136000000     0.004000000
H    -1.918000000    -3.718000000    -0.004000000
C     0.274000000    -3.704000000    -0.124000000
C     0.227000000    -5.138000000    -0.634000000
O    -0.796000000    -5.715000000    -0.917000000
O     1.310000000    -5.673000000    -0.915000000
