17
-97.98302
C     2.568000000     0.699000000    -0.585000000
H     3.130000000     0.723000000    -1.515000000
C     1.163000000     0.350000000    -0.746000000
H     0.809000000     0.154000000    -1.754000000
C     0.452000000     0.143000000     0.401000000
C    -0.888000000    -0.606000000     0.343000000
H    -1.658000000     0.087000000    -0.003000000
H    -0.822000000    -1.462000000    -0.332000000
H    -1.155000000    -1.016000000     1.319000000
C     0.954000000     0.500000000     1.668000000
H     0.359000000     0.408000000     2.573000000
C     2.237000000     0.969000000     1.823000000
H     2.645000000     1.283000000     2.780000000
C     3.069000000     0.959000000     0.724000000
C     4.473000000     1.575000000     0.851000000
O     4.972000000     1.766000000     1.940000000
O     4.961000000     1.939000000    -0.213000000
