17
-94.87831
C     2.172000000     0.913000000    -1.147000000
H     2.753000000     1.195000000    -2.022000000
C     0.867000000     0.375000000    -1.230000000
H     0.353000000     0.565000000    -2.169000000
C     0.259000000    -0.053000000    -0.056000000
C    -1.133000000    -0.636000000    -0.198000000
H    -1.595000000     0.057000000    -0.905000000
H    -1.015000000    -1.527000000    -0.819000000
H    -1.752000000    -0.888000000     0.665000000
C     0.957000000    -0.169000000     1.104000000
H     0.466000000    -0.453000000     2.031000000
C     2.218000000     0.337000000     1.233000000
H     2.795000000     0.215000000     2.146000000
C     2.840000000     0.874000000     0.090000000
C     4.228000000     1.404000000     0.157000000
O     4.923000000     1.183000000     1.137000000
O     4.505000000     2.120000000    -0.802000000
