17
-94.62591
C     2.654000000     0.971000000    -1.480000000
H     2.972000000     1.496000000    -2.378000000
C     1.339000000     0.561000000    -1.406000000
H     0.681000000     0.737000000    -2.254000000
C     0.861000000    -0.098000000    -0.225000000
C    -0.648000000    -0.312000000    -0.280000000
H    -0.942000000    -1.314000000     0.040000000
H    -1.136000000     0.422000000     0.365000000
H    -1.056000000    -0.242000000    -1.290000000
C     1.702000000    -0.299000000     0.831000000
H     1.323000000    -0.745000000     1.747000000
C     3.065000000    -0.025000000     0.712000000
H     3.610000000    -0.285000000     1.616000000
C     3.584000000     0.715000000    -0.437000000
C     5.019000000     1.112000000    -0.563000000
O     5.768000000     0.816000000     0.370000000
O     5.475000000     1.749000000    -1.503000000
