17
-98.06567
C     2.826000000     0.349000000    -1.432000000
H     3.331000000     0.417000000    -2.392000000
C     1.535000000    -0.182000000    -1.277000000
H     0.892000000    -0.359000000    -2.135000000
C     0.903000000    -0.173000000    -0.016000000
C    -0.523000000    -0.645000000     0.089000000
H    -1.079000000     0.270000000     0.302000000
H    -0.797000000    -1.233000000    -0.789000000
H    -0.604000000    -1.276000000     0.977000000
C     1.648000000     0.301000000     1.053000000
H     1.162000000     0.318000000     2.025000000
C     2.962000000     0.734000000     0.925000000
H     3.481000000     1.158000000     1.781000000
C     3.564000000     0.796000000    -0.332000000
C     4.913000000     1.406000000    -0.447000000
O     5.491000000     1.704000000     0.571000000
O     5.518000000     1.399000000    -1.530000000
