17
-89.85834
C     2.566000000     0.918000000    -0.342000000
H     3.237000000     1.336000000    -1.088000000
C     1.288000000     0.584000000    -0.739000000
H     1.018000000     0.778000000    -1.773000000
C     0.408000000     0.098000000     0.299000000
C    -0.987000000    -0.208000000    -0.087000000
H    -1.211000000    -1.142000000     0.432000000
H    -1.664000000     0.550000000     0.313000000
H    -1.048000000    -0.336000000    -1.169000000
C     0.888000000    -0.198000000     1.576000000
H     0.337000000    -0.712000000     2.359000000
C     2.228000000     0.202000000     1.890000000
H     2.595000000    -0.119000000     2.861000000
C     3.013000000     0.795000000     0.945000000
C     4.401000000     1.204000000     1.298000000
O     4.684000000     1.259000000     2.460000000
O     5.044000000     1.812000000     0.473000000
