17
-94.71197
C     3.449000000     0.911000000     0.182000000
H     4.210000000     1.160000000    -0.553000000
C     2.181000000     0.636000000    -0.274000000
H     1.932000000     0.935000000    -1.289000000
C     1.209000000     0.177000000     0.631000000
C    -0.270000000     0.047000000     0.240000000
H    -0.292000000    -0.071000000    -0.845000000
H    -0.763000000    -0.855000000     0.608000000
H    -0.826000000     0.950000000     0.503000000
C     1.654000000    -0.029000000     1.950000000
H     1.014000000    -0.405000000     2.744000000
C     3.024000000     0.147000000     2.353000000
H     3.230000000    -0.153000000     3.377000000
C     3.860000000     0.766000000     1.492000000
C     5.335000000     1.087000000     1.929000000
O     5.708000000     1.127000000     3.120000000
O     6.100000000     1.530000000     1.059000000
