17
-95.83733
C     3.964000000     0.243000000     0.526000000
H     4.592000000     0.032000000    -0.335000000
C     2.573000000     0.122000000     0.341000000
H     2.201000000    -0.128000000    -0.649000000
C     1.636000000     0.383000000     1.368000000
C     0.175000000     0.363000000     1.115000000
H    -0.147000000    -0.107000000     0.183000000
H    -0.332000000    -0.053000000     1.988000000
H    -0.223000000     1.377000000     1.036000000
C     2.161000000     0.662000000     2.611000000
H     1.519000000     0.961000000     3.435000000
C     3.553000000     0.647000000     2.793000000
H     3.870000000     0.831000000     3.817000000
C     4.495000000     0.533000000     1.781000000
C     5.955000000     0.868000000     2.030000000
O     6.294000000     1.363000000     3.046000000
O     6.657000000     0.639000000     1.086000000
