17
-90.00678
C     2.074000000     1.565000000     0.067000000
H     2.983000000     1.836000000    -0.465000000
C     1.181000000     0.742000000    -0.607000000
H     1.353000000     0.573000000    -1.667000000
C     0.069000000     0.116000000     0.013000000
C    -0.859000000    -0.765000000    -0.773000000
H    -0.428000000    -0.684000000    -1.773000000
H    -0.830000000    -1.839000000    -0.573000000
H    -1.897000000    -0.430000000    -0.751000000
C    -0.233000000     0.483000000     1.295000000
H    -1.063000000     0.000000000     1.804000000
C     0.683000000     1.226000000     2.020000000
H     0.601000000     1.307000000     3.100000000
C     1.875000000     1.770000000     1.466000000
C     2.839000000     2.659000000     2.239000000
O     2.673000000     2.821000000     3.424000000
O     3.782000000     3.050000000     1.660000000
