17
-93.57224
C     1.202000000     3.031000000     0.560000000
H     1.649000000     3.866000000     0.027000000
C     0.674000000     1.995000000    -0.233000000
H     0.845000000     1.989000000    -1.307000000
C    -0.032000000     0.884000000     0.367000000
C    -0.597000000    -0.240000000    -0.525000000
H    -1.591000000    -0.492000000    -0.148000000
H    -0.709000000     0.220000000    -1.509000000
H     0.127000000    -1.056000000    -0.555000000
C    -0.038000000     0.870000000     1.789000000
H    -0.490000000     0.051000000     2.344000000
C     0.542000000     1.877000000     2.508000000
H     0.524000000     1.756000000     3.588000000
C     1.136000000     2.970000000     1.946000000
C     1.917000000     4.001000000     2.722000000
O     2.213000000     3.728000000     3.887000000
O     2.475000000     4.923000000     2.188000000
