17
-91.06570
C     1.748000000     2.064000000    -0.334000000
H     2.333000000     2.669000000    -1.021000000
C     0.865000000     1.086000000    -0.781000000
H     0.818000000     0.817000000    -1.833000000
C     0.240000000     0.291000000     0.156000000
C    -0.622000000    -0.812000000    -0.353000000
H    -1.269000000    -1.157000000     0.456000000
H    -1.329000000    -0.528000000    -1.135000000
H    -0.069000000    -1.702000000    -0.660000000
C     0.426000000     0.560000000     1.508000000
H    -0.148000000    -0.028000000     2.220000000
C     1.227000000     1.609000000     1.940000000
H     1.357000000     1.789000000     3.005000000
C     1.974000000     2.312000000     1.046000000
C     2.876000000     3.410000000     1.531000000
O     2.936000000     3.665000000     2.699000000
O     3.571000000     3.961000000     0.767000000
