17
-97.51120
C     1.449000000     2.179000000     0.772000000
H     2.263000000     2.823000000     0.448000000
C     0.786000000     1.326000000    -0.073000000
H     0.984000000     1.474000000    -1.131000000
C    -0.042000000     0.314000000     0.426000000
C    -0.607000000    -0.630000000    -0.602000000
H    -1.600000000    -1.022000000    -0.372000000
H    -0.548000000    -0.194000000    -1.601000000
H     0.023000000    -1.521000000    -0.618000000
C    -0.282000000     0.251000000     1.769000000
H    -1.016000000    -0.464000000     2.133000000
C     0.367000000     1.108000000     2.675000000
H     0.157000000     1.066000000     3.741000000
C     1.245000000     2.058000000     2.198000000
C     1.921000000     3.013000000     3.180000000
O     2.043000000     2.766000000     4.374000000
O     2.548000000     4.016000000     2.769000000
