17
-88.60584
C     1.421000000     1.860000000    -0.496000000
H     2.188000000     2.256000000    -1.157000000
C     0.594000000     0.782000000    -0.926000000
H     0.748000000     0.381000000    -1.925000000
C    -0.304000000     0.271000000    -0.049000000
C    -0.992000000    -0.968000000    -0.445000000
H    -2.071000000    -0.826000000    -0.355000000
H    -0.827000000    -1.218000000    -1.495000000
H    -0.741000000    -1.806000000     0.207000000
C    -0.410000000     0.796000000     1.270000000
H    -1.095000000     0.349000000     1.985000000
C     0.249000000     1.948000000     1.611000000
H    -0.021000000     2.358000000     2.581000000
C     1.225000000     2.513000000     0.742000000
C     2.034000000     3.698000000     1.186000000
O     1.761000000     4.199000000     2.235000000
O     3.110000000     3.879000000     0.713000000
