17
-93.44901
C     1.902000000     2.277000000    -0.742000000
H     2.624000000     2.612000000    -1.482000000
C     1.079000000     1.161000000    -0.932000000
H     1.113000000     0.652000000    -1.891000000
C     0.181000000     0.834000000     0.085000000
C    -0.649000000    -0.367000000     0.011000000
H    -0.605000000    -0.667000000    -1.038000000
H    -0.237000000    -1.159000000     0.640000000
H    -1.686000000    -0.228000000     0.324000000
C     0.173000000     1.503000000     1.332000000
H    -0.502000000     1.127000000     2.096000000
C     0.993000000     2.629000000     1.496000000
H     1.075000000     3.030000000     2.503000000
C     1.885000000     3.010000000     0.479000000
C     2.820000000     4.140000000     0.553000000
O     2.930000000     4.818000000     1.576000000
O     3.729000000     4.238000000    -0.261000000
