17
-94.61250
C     1.264000000     2.621000000     0.440000000
H     1.391000000     3.551000000    -0.107000000
C     0.267000000     1.752000000     0.089000000
H    -0.425000000     2.028000000    -0.703000000
C     0.171000000     0.549000000     0.785000000
C    -0.772000000    -0.512000000     0.258000000
H    -1.403000000    -1.031000000     0.983000000
H    -1.346000000    -0.136000000    -0.592000000
H    -0.220000000    -1.316000000    -0.232000000
C     0.911000000     0.367000000     1.908000000
H     0.831000000    -0.532000000     2.514000000
C     1.901000000     1.326000000     2.276000000
H     2.489000000     1.275000000     3.189000000
C     2.132000000     2.426000000     1.490000000
C     3.276000000     3.393000000     1.742000000
O     3.725000000     3.287000000     2.837000000
O     3.724000000     3.942000000     0.770000000
