17
-92.18294
C     2.063000000     1.979000000    -0.838000000
H     2.772000000     2.267000000    -1.610000000
C     1.115000000     1.032000000    -1.188000000
H     1.200000000     0.554000000    -2.161000000
C     0.169000000     0.521000000    -0.230000000
C    -0.687000000    -0.675000000    -0.592000000
H    -1.688000000    -0.403000000    -0.251000000
H    -0.574000000    -0.844000000    -1.665000000
H    -0.326000000    -1.481000000     0.051000000
C     0.171000000     1.083000000     1.027000000
H    -0.472000000     0.545000000     1.719000000
C     1.155000000     2.023000000     1.393000000
H     1.094000000     2.334000000     2.433000000
C     2.133000000     2.494000000     0.513000000
C     3.239000000     3.427000000     0.991000000
O     3.039000000     4.139000000     1.926000000
O     4.319000000     3.383000000     0.455000000
