17
-95.07309
C     1.573000000    -2.478000000    -1.156000000
H     2.429000000    -2.794000000    -1.746000000
C     1.197000000    -1.124000000    -0.995000000
H     1.891000000    -0.362000000    -1.338000000
C     0.096000000    -0.713000000    -0.244000000
C    -0.204000000     0.762000000     0.029000000
H    -0.624000000     0.611000000     1.025000000
H     0.675000000     1.399000000     0.152000000
H    -0.920000000     1.169000000    -0.688000000
C    -0.698000000    -1.695000000     0.379000000
H    -1.561000000    -1.435000000     0.986000000
C    -0.302000000    -3.049000000     0.209000000
H    -0.871000000    -3.842000000     0.688000000
C     0.832000000    -3.475000000    -0.578000000
C     1.164000000    -4.921000000    -0.657000000
O     0.292000000    -5.696000000    -0.346000000
O     2.227000000    -5.315000000    -1.140000000
