17
-98.19044
C     1.841000000     1.628000000    -1.585000000
H     2.480000000     1.593000000    -2.464000000
C     1.021000000     0.545000000    -1.349000000
H     1.013000000    -0.291000000    -2.043000000
C     0.165000000     0.481000000    -0.262000000
C    -0.735000000    -0.724000000    -0.093000000
H    -0.135000000    -1.548000000     0.299000000
H    -1.571000000    -0.458000000     0.557000000
H    -1.138000000    -1.082000000    -1.043000000
C     0.251000000     1.483000000     0.675000000
H    -0.282000000     1.311000000     1.607000000
C     1.111000000     2.598000000     0.501000000
H     1.159000000     3.403000000     1.229000000
C     1.883000000     2.630000000    -0.651000000
C     2.831000000     3.756000000    -0.948000000
O     3.149000000     4.515000000    -0.039000000
O     3.332000000     3.921000000    -2.040000000
