17
-99.30729
C     2.150000000     1.435000000    -0.904000000
H     2.855000000     1.616000000    -1.712000000
C     1.080000000     0.524000000    -1.065000000
H     1.059000000    -0.073000000    -1.973000000
C     0.153000000     0.319000000    -0.059000000
C    -1.064000000    -0.586000000    -0.278000000
H    -2.032000000    -0.083000000    -0.241000000
H    -1.029000000    -1.062000000    -1.260000000
H    -1.105000000    -1.423000000     0.422000000
C     0.323000000     0.973000000     1.162000000
H    -0.392000000     0.747000000     1.949000000
C     1.273000000     1.976000000     1.332000000
H     1.326000000     2.614000000     2.211000000
C     2.210000000     2.197000000     0.331000000
C     3.203000000     3.343000000     0.504000000
O     3.377000000     3.937000000     1.570000000
O     3.733000000     3.720000000    -0.512000000
