17
-85.58865
C     2.543000000     2.228000000    -0.731000000
H     3.057000000     2.510000000    -1.647000000
C     1.522000000     1.308000000    -0.889000000
H     1.284000000     0.959000000    -1.891000000
C     0.823000000     0.761000000     0.203000000
C    -0.186000000    -0.303000000    -0.046000000
H    -1.034000000    -0.209000000     0.635000000
H    -0.441000000    -0.315000000    -1.108000000
H     0.235000000    -1.305000000     0.059000000
C     1.129000000     1.238000000     1.486000000
H     0.588000000     0.855000000     2.347000000
C     2.076000000     2.305000000     1.647000000
H     2.219000000     2.741000000     2.633000000
C     2.795000000     2.798000000     0.513000000
C     3.796000000     3.955000000     0.698000000
O     4.122000000     4.332000000     1.753000000
O     4.204000000     4.574000000    -0.229000000
