17
-94.33678
C     2.306000000     2.114000000    -0.619000000
H     3.108000000     2.272000000    -1.335000000
C     1.480000000     0.983000000    -0.868000000
H     1.717000000     0.325000000    -1.699000000
C     0.338000000     0.754000000    -0.035000000
C    -0.671000000    -0.401000000    -0.191000000
H    -0.499000000    -0.713000000    -1.223000000
H    -0.330000000    -1.259000000     0.391000000
H    -1.713000000    -0.106000000    -0.049000000
C     0.077000000     1.587000000     1.063000000
H    -0.706000000     1.458000000     1.806000000
C     0.849000000     2.743000000     1.260000000
H     0.698000000     3.458000000     2.064000000
C     1.962000000     3.003000000     0.425000000
C     2.933000000     4.052000000     0.724000000
O     2.675000000     4.832000000     1.643000000
O     4.057000000     4.069000000     0.221000000
