17
-78.45343
C     2.676000000     2.496000000     0.009000000
H     3.546000000     2.576000000    -0.637000000
C     1.833000000     1.430000000    -0.069000000
H     1.990000000     0.618000000    -0.775000000
C     0.755000000     1.262000000     0.787000000
C    -0.201000000     0.114000000     0.732000000
H     0.384000000    -0.751000000     1.053000000
H    -1.087000000     0.324000000     1.334000000
H    -0.480000000     0.166000000    -0.322000000
C     0.626000000     2.180000000     1.809000000
H    -0.131000000     2.031000000     2.574000000
C     1.538000000     3.213000000     1.933000000
H     1.427000000     3.974000000     2.700000000
C     2.605000000     3.343000000     1.064000000
C     3.475000000     4.552000000     1.093000000
O     3.482000000     5.369000000     1.964000000
O     4.432000000     4.633000000     0.371000000
