17
-91.47097
C     1.979000000     1.637000000    -0.855000000
H     2.696000000     1.937000000    -1.616000000
C     1.072000000     0.636000000    -1.176000000
H     1.091000000     0.077000000    -2.108000000
C     0.068000000     0.332000000    -0.277000000
C    -0.956000000    -0.725000000    -0.584000000
H    -2.034000000    -0.568000000    -0.506000000
H    -0.940000000    -0.975000000    -1.647000000
H    -0.649000000    -1.594000000     0.003000000
C    -0.040000000     1.110000000     0.925000000
H    -0.890000000     0.966000000     1.587000000
C     0.916000000     2.035000000     1.292000000
H     0.922000000     2.519000000     2.266000000
C     1.918000000     2.298000000     0.373000000
C     2.925000000     3.346000000     0.567000000
O     2.919000000     3.815000000     1.717000000
O     3.535000000     3.878000000    -0.297000000
