17
-95.34779
C     1.683000000     1.627000000    -0.125000000
H     2.522000000     2.066000000    -0.659000000
C     1.043000000     0.490000000    -0.668000000
H     1.501000000     0.107000000    -1.577000000
C    -0.146000000     0.012000000    -0.125000000
C    -0.866000000    -1.077000000    -0.889000000
H    -1.900000000    -0.825000000    -1.134000000
H    -0.470000000    -1.210000000    -1.898000000
H    -0.952000000    -1.954000000    -0.244000000
C    -0.626000000     0.586000000     1.040000000
H    -1.458000000     0.053000000     1.492000000
C    -0.002000000     1.718000000     1.612000000
H    -0.539000000     2.227000000     2.408000000
C     1.145000000     2.249000000     0.991000000
C     1.816000000     3.471000000     1.572000000
O     1.335000000     4.094000000     2.450000000
O     2.846000000     3.854000000     1.010000000
