17
-88.29227
C     1.820000000     2.021000000    -0.438000000
H     2.614000000     2.314000000    -1.120000000
C     1.144000000     0.840000000    -0.815000000
H     1.385000000     0.224000000    -1.678000000
C     0.091000000     0.368000000    -0.033000000
C    -0.633000000    -0.896000000    -0.384000000
H    -1.555000000    -0.885000000     0.199000000
H    -0.975000000    -1.010000000    -1.415000000
H    -0.196000000    -1.790000000     0.066000000
C    -0.313000000     1.119000000     1.112000000
H    -1.082000000     0.596000000     1.675000000
C     0.279000000     2.348000000     1.477000000
H    -0.082000000     2.884000000     2.352000000
C     1.371000000     2.762000000     0.668000000
C     2.119000000     3.926000000     0.982000000
O     1.786000000     4.658000000     1.892000000
O     3.170000000     4.191000000     0.398000000
