17
-98.70372
C     1.792000000     1.911000000    -0.338000000
H     2.665000000     2.304000000    -0.852000000
C     1.182000000     0.728000000    -0.767000000
H     1.565000000     0.107000000    -1.573000000
C     0.047000000     0.334000000    -0.086000000
C    -0.674000000    -0.949000000    -0.489000000
H    -0.185000000    -1.791000000     0.006000000
H    -1.732000000    -0.908000000    -0.225000000
H    -0.551000000    -1.020000000    -1.572000000
C    -0.451000000     1.138000000     0.969000000
H    -1.335000000     0.806000000     1.506000000
C     0.114000000     2.318000000     1.407000000
H    -0.168000000     2.803000000     2.338000000
C     1.228000000     2.727000000     0.655000000
C     1.909000000     3.992000000     1.119000000
O     1.666000000     4.432000000     2.261000000
O     2.766000000     4.396000000     0.398000000
