17
-96.88095
C     1.974000000     2.345000000    -0.722000000
H     2.851000000     2.662000000    -1.280000000
C     1.322000000     1.122000000    -0.997000000
H     1.463000000     0.586000000    -1.932000000
C     0.373000000     0.635000000    -0.140000000
C    -0.447000000    -0.629000000    -0.349000000
H    -1.488000000    -0.410000000    -0.595000000
H    -0.157000000    -1.167000000    -1.254000000
H    -0.493000000    -1.271000000     0.534000000
C     0.120000000     1.277000000     1.010000000
H    -0.652000000     0.904000000     1.678000000
C     0.788000000     2.450000000     1.340000000
H     0.563000000     2.850000000     2.326000000
C     1.732000000     3.029000000     0.475000000
C     2.596000000     4.208000000     0.953000000
O     2.556000000     4.576000000     2.122000000
O     3.386000000     4.699000000     0.153000000
