17
-87.48603
C     2.333000000     2.380000000    -0.583000000
H     3.152000000     2.539000000    -1.279000000
C     1.497000000     1.343000000    -0.819000000
H     1.692000000     0.781000000    -1.728000000
C     0.458000000     1.072000000     0.049000000
C    -0.438000000    -0.085000000    -0.261000000
H    -0.581000000    -0.287000000    -1.324000000
H    -0.044000000    -0.889000000     0.364000000
H    -1.412000000     0.104000000     0.196000000
C     0.203000000     1.857000000     1.122000000
H    -0.637000000     1.570000000     1.750000000
C     0.998000000     3.003000000     1.332000000
H     0.646000000     3.751000000     2.038000000
C     2.048000000     3.289000000     0.467000000
C     2.971000000     4.392000000     0.829000000
O     2.743000000     5.226000000     1.678000000
O     3.987000000     4.594000000     0.193000000
