17
-94.46926
C     2.114000000     1.545000000    -0.613000000
H     2.855000000     1.612000000    -1.406000000
C     1.299000000     0.423000000    -0.621000000
H     1.460000000    -0.336000000    -1.382000000
C     0.285000000     0.275000000     0.305000000
C    -0.632000000    -0.968000000     0.139000000
H    -1.622000000    -0.738000000     0.540000000
H    -0.817000000    -1.257000000    -0.897000000
H    -0.221000000    -1.745000000     0.787000000
C     0.092000000     1.306000000     1.235000000
H    -0.705000000     1.223000000     1.969000000
C     0.948000000     2.467000000     1.247000000
H     0.839000000     3.310000000     1.926000000
C     1.977000000     2.586000000     0.337000000
C     2.927000000     3.799000000     0.334000000
O     2.876000000     4.601000000     1.213000000
O     3.775000000     3.975000000    -0.537000000
