17
-96.17667
C     1.428000000     2.691000000    -0.393000000
H     1.853000000     3.234000000    -1.233000000
C     0.643000000     1.653000000    -0.920000000
H     0.490000000     1.542000000    -1.990000000
C    -0.032000000     0.831000000    -0.017000000
C    -0.953000000    -0.237000000    -0.517000000
H    -1.652000000     0.188000000    -1.240000000
H    -0.403000000    -1.009000000    -1.060000000
H    -1.605000000    -0.763000000     0.184000000
C     0.099000000     1.029000000     1.298000000
H    -0.351000000     0.286000000     1.952000000
C     0.950000000     2.051000000     1.811000000
H     0.955000000     2.288000000     2.872000000
C     1.662000000     2.915000000     0.954000000
C     2.503000000     4.147000000     1.427000000
O     2.535000000     4.473000000     2.590000000
O     3.060000000     4.666000000     0.472000000
