17
-86.16198
C     1.666000000     2.339000000    -1.098000000
H     2.089000000     2.738000000    -2.016000000
C     0.990000000     1.126000000    -1.119000000
H     0.779000000     0.616000000    -2.055000000
C     0.347000000     0.696000000     0.060000000
C    -0.316000000    -0.648000000    -0.010000000
H    -0.477000000    -0.780000000    -1.082000000
H     0.321000000    -1.407000000     0.449000000
H    -1.302000000    -0.642000000     0.460000000
C     0.404000000     1.395000000     1.269000000
H    -0.141000000     0.920000000     2.081000000
C     1.106000000     2.588000000     1.269000000
H     1.010000000     3.306000000     2.080000000
C     1.831000000     3.046000000     0.074000000
C     2.409000000     4.422000000     0.004000000
O     2.338000000     5.216000000     0.946000000
O     3.105000000     4.722000000    -0.893000000
