17
-89.68893
C     1.347000000     2.430000000    -0.590000000
H     2.074000000     2.898000000    -1.250000000
C     0.806000000     1.187000000    -0.927000000
H     1.120000000     0.567000000    -1.762000000
C    -0.223000000     0.587000000    -0.135000000
C    -0.920000000    -0.669000000    -0.474000000
H    -0.371000000    -1.472000000    -0.970000000
H    -1.297000000    -1.112000000     0.450000000
H    -1.774000000    -0.480000000    -1.128000000
C    -0.586000000     1.086000000     1.100000000
H    -1.225000000     0.477000000     1.734000000
C    -0.020000000     2.269000000     1.501000000
H    -0.287000000     2.745000000     2.441000000
C     0.850000000     3.009000000     0.658000000
C     1.521000000     4.282000000     1.187000000
O     0.991000000     4.939000000     2.070000000
O     2.426000000     4.830000000     0.565000000
