17
-95.79992
C     1.616000000     2.115000000    -0.413000000
H     2.521000000     2.413000000    -0.937000000
C     0.942000000     0.911000000    -0.701000000
H     1.193000000     0.481000000    -1.667000000
C    -0.051000000     0.451000000     0.142000000
C    -0.917000000    -0.730000000    -0.341000000
H    -1.007000000    -0.747000000    -1.430000000
H    -0.335000000    -1.600000000    -0.030000000
H    -1.918000000    -0.781000000     0.093000000
C    -0.244000000     0.988000000     1.412000000
H    -0.945000000     0.507000000     2.089000000
C     0.413000000     2.233000000     1.692000000
H     0.237000000     2.769000000     2.621000000
C     1.264000000     2.857000000     0.736000000
C     2.046000000     4.086000000     1.104000000
O     1.901000000     4.596000000     2.247000000
O     3.006000000     4.478000000     0.429000000
