17
-98.51435
C     1.997000000     2.036000000     0.689000000
H     2.956000000     2.482000000     0.437000000
C     1.626000000     0.922000000    -0.036000000
H     2.279000000     0.521000000    -0.807000000
C     0.403000000     0.342000000     0.276000000
C    -0.122000000    -0.784000000    -0.609000000
H    -1.212000000    -0.765000000    -0.540000000
H     0.225000000    -0.790000000    -1.644000000
H     0.313000000    -1.692000000    -0.186000000
C    -0.374000000     0.806000000     1.328000000
H    -1.318000000     0.322000000     1.562000000
C     0.118000000     1.840000000     2.103000000
H    -0.414000000     2.051000000     3.028000000
C     1.304000000     2.492000000     1.784000000
C     1.818000000     3.699000000     2.523000000
O     1.197000000     4.124000000     3.492000000
O     2.925000000     4.121000000     2.274000000
