17
-95.63345
C     1.378000000     1.999000000     0.616000000
H     2.161000000     2.634000000     0.210000000
C     1.076000000     0.803000000    -0.095000000
H     1.733000000     0.455000000    -0.888000000
C    -0.107000000     0.096000000     0.226000000
C    -0.517000000    -1.060000000    -0.630000000
H     0.112000000    -1.919000000    -0.387000000
H    -1.551000000    -1.369000000    -0.466000000
H    -0.407000000    -0.862000000    -1.698000000
C    -0.901000000     0.597000000     1.219000000
H    -1.814000000     0.082000000     1.504000000
C    -0.603000000     1.702000000     1.902000000
H    -1.347000000     2.123000000     2.574000000
C     0.539000000     2.477000000     1.660000000
C     0.764000000     3.755000000     2.381000000
O    -0.056000000     4.222000000     3.131000000
O     1.901000000     4.302000000     2.299000000
