17
-88.19771
C     1.312000000     2.534000000    -0.097000000
H     2.177000000     2.942000000    -0.613000000
C     0.771000000     1.346000000    -0.478000000
H     1.295000000     0.820000000    -1.272000000
C    -0.303000000     0.710000000     0.161000000
C    -0.733000000    -0.597000000    -0.437000000
H     0.124000000    -1.273000000    -0.387000000
H    -1.574000000    -0.957000000     0.158000000
H    -1.099000000    -0.552000000    -1.465000000
C    -0.786000000     1.326000000     1.309000000
H    -1.460000000     0.775000000     1.960000000
C    -0.344000000     2.581000000     1.691000000
H    -0.554000000     3.036000000     2.656000000
C     0.653000000     3.229000000     0.950000000
C     1.099000000     4.587000000     1.458000000
O     0.389000000     5.307000000     2.135000000
O     2.069000000     5.098000000     0.991000000
