17
-93.49782
C     2.741000000     1.372000000     1.426000000
H     3.738000000     1.775000000     1.268000000
C     2.075000000     0.833000000     0.318000000
H     2.594000000     0.795000000    -0.637000000
C     0.836000000     0.201000000     0.452000000
C     0.190000000    -0.573000000    -0.742000000
H    -0.868000000    -0.382000000    -0.933000000
H     0.711000000    -0.292000000    -1.660000000
H     0.311000000    -1.639000000    -0.540000000
C     0.219000000     0.217000000     1.722000000
H    -0.749000000    -0.236000000     1.920000000
C     0.875000000     0.868000000     2.802000000
H     0.492000000     0.961000000     3.815000000
C     2.159000000     1.403000000     2.719000000
C     2.914000000     1.952000000     3.946000000
O     2.430000000     1.919000000     5.092000000
O     4.096000000     2.115000000     3.865000000
