17
-89.84603
C     0.624000000     2.431000000     0.865000000
H     0.434000000     3.496000000     0.970000000
C     0.039000000     1.563000000    -0.034000000
H    -0.655000000     2.028000000    -0.731000000
C     0.313000000     0.196000000    -0.028000000
C    -0.487000000    -0.673000000    -0.994000000
H    -1.269000000    -1.288000000    -0.544000000
H    -0.846000000    -0.114000000    -1.861000000
H     0.275000000    -1.376000000    -1.338000000
C     1.026000000    -0.379000000     0.953000000
H     1.155000000    -1.452000000     1.072000000
C     1.605000000     0.439000000     1.874000000
H     2.193000000    -0.099000000     2.613000000
C     1.425000000     1.826000000     1.874000000
C     2.045000000     2.775000000     2.904000000
O     2.976000000     2.469000000     3.648000000
O     1.577000000     3.879000000     3.074000000
