17
-94.67349
C     1.909000000     1.710000000     0.603000000
H     2.824000000     2.077000000     0.143000000
C     1.119000000     0.819000000    -0.182000000
H     1.385000000     0.691000000    -1.228000000
C     0.034000000     0.186000000     0.396000000
C    -0.798000000    -0.799000000    -0.489000000
H    -0.204000000    -1.710000000    -0.595000000
H    -1.698000000    -1.114000000     0.042000000
H    -1.029000000    -0.378000000    -1.470000000
C    -0.312000000     0.414000000     1.713000000
H    -1.123000000    -0.154000000     2.162000000
C     0.499000000     1.222000000     2.509000000
H     0.314000000     1.445000000     3.557000000
C     1.579000000     1.901000000     1.973000000
C     2.484000000     2.776000000     2.773000000
O     2.227000000     2.861000000     3.917000000
O     3.335000000     3.429000000     2.212000000
