17
-91.66170
C     2.069000000     1.088000000     0.948000000
H     3.043000000     1.535000000     0.767000000
C     1.337000000     0.361000000    -0.028000000
H     1.832000000     0.279000000    -0.992000000
C     0.143000000    -0.240000000     0.192000000
C    -0.487000000    -1.078000000    -0.854000000
H     0.316000000    -1.592000000    -1.387000000
H    -1.212000000    -1.805000000    -0.483000000
H    -1.085000000    -0.419000000    -1.487000000
C    -0.291000000    -0.147000000     1.525000000
H    -1.232000000    -0.593000000     1.834000000
C     0.288000000     0.633000000     2.508000000
H    -0.202000000     0.688000000     3.476000000
C     1.494000000     1.305000000     2.181000000
C     2.186000000     2.212000000     3.170000000
O     1.712000000     2.314000000     4.250000000
O     3.222000000     2.899000000     2.931000000
