17
-93.97855
C    -0.426000000     2.514000000     0.262000000
H    -1.098000000     3.362000000     0.157000000
C    -0.713000000     1.238000000    -0.207000000
H    -1.628000000     1.085000000    -0.774000000
C     0.222000000     0.260000000    -0.142000000
C    -0.092000000    -1.002000000    -0.956000000
H    -0.821000000    -0.854000000    -1.756000000
H     0.853000000    -1.362000000    -1.368000000
H    -0.448000000    -1.854000000    -0.373000000
C     1.352000000     0.464000000     0.627000000
H     1.965000000    -0.393000000     0.895000000
C     1.618000000     1.708000000     1.105000000
H     2.487000000     1.844000000     1.743000000
C     0.758000000     2.823000000     0.894000000
C     1.158000000     4.172000000     1.415000000
O     2.308000000     4.426000000     1.817000000
O     0.363000000     5.117000000     1.459000000
