17
-99.09153
C     0.328000000     3.010000000    -0.031000000
H     0.054000000     4.039000000    -0.251000000
C    -0.350000000     1.821000000    -0.257000000
H    -1.265000000     1.908000000    -0.836000000
C     0.140000000     0.567000000     0.105000000
C    -0.523000000    -0.744000000    -0.261000000
H    -0.789000000    -1.321000000     0.627000000
H    -1.353000000    -0.507000000    -0.929000000
H     0.257000000    -1.285000000    -0.800000000
C     1.371000000     0.497000000     0.722000000
H     1.753000000    -0.470000000     1.038000000
C     2.137000000     1.617000000     1.004000000
H     3.150000000     1.517000000     1.385000000
C     1.598000000     2.868000000     0.664000000
C     2.360000000     4.172000000     0.958000000
O     3.388000000     4.105000000     1.628000000
O     2.013000000     5.213000000     0.413000000
