17
-90.91192
C     0.552000000    -2.336000000     0.418000000
H     1.039000000    -3.069000000     1.055000000
C     0.529000000    -1.019000000     0.813000000
H     1.078000000    -0.671000000     1.685000000
C    -0.064000000    -0.030000000     0.050000000
C    -0.109000000     1.369000000     0.556000000
H    -0.785000000     2.089000000     0.089000000
H    -0.152000000     1.357000000     1.647000000
H     0.826000000     1.852000000     0.267000000
C    -0.952000000    -0.384000000    -0.951000000
H    -1.553000000     0.375000000    -1.446000000
C    -0.980000000    -1.671000000    -1.464000000
H    -1.609000000    -2.023000000    -2.278000000
C    -0.207000000    -2.682000000    -0.775000000
C    -0.224000000    -4.132000000    -1.182000000
O    -0.714000000    -4.466000000    -2.228000000
O     0.047000000    -5.025000000    -0.289000000
