17
-92.14176
C    -0.142000000     2.873000000     0.269000000
H    -0.625000000     3.830000000     0.092000000
C    -0.753000000     1.685000000    -0.047000000
H    -1.741000000     1.771000000    -0.492000000
C    -0.048000000     0.441000000    -0.017000000
C    -0.599000000    -0.811000000    -0.652000000
H    -1.463000000    -1.097000000    -0.048000000
H    -0.986000000    -0.676000000    -1.664000000
H     0.105000000    -1.641000000    -0.560000000
C     1.224000000     0.472000000     0.605000000
H     1.888000000    -0.387000000     0.564000000
C     1.785000000     1.699000000     1.004000000
H     2.799000000     1.788000000     1.385000000
C     1.138000000     2.863000000     0.818000000
C     1.731000000     4.156000000     1.391000000
O     2.861000000     4.258000000     1.805000000
O     0.947000000     5.039000000     1.659000000
