17
-96.97560
C    -0.151000000     2.847000000    -0.479000000
H    -0.638000000     3.751000000    -0.835000000
C    -0.667000000     1.529000000    -0.608000000
H    -1.670000000     1.341000000    -0.983000000
C     0.104000000     0.473000000    -0.206000000
C    -0.435000000    -0.931000000    -0.474000000
H    -1.049000000    -0.851000000    -1.374000000
H     0.303000000    -1.715000000    -0.658000000
H    -1.110000000    -1.289000000     0.306000000
C     1.374000000     0.759000000     0.389000000
H     1.994000000    -0.046000000     0.774000000
C     1.840000000     2.063000000     0.546000000
H     2.860000000     2.173000000     0.907000000
C     1.058000000     3.098000000     0.125000000
C     1.531000000     4.543000000     0.310000000
O     2.552000000     4.810000000     0.946000000
O     0.798000000     5.449000000    -0.026000000
