17
-92.22939
C     0.469000000     2.664000000    -0.512000000
H     0.154000000     3.541000000    -1.072000000
C    -0.113000000     1.422000000    -0.660000000
H    -1.052000000     1.274000000    -1.189000000
C     0.511000000     0.358000000    -0.047000000
C    -0.206000000    -0.939000000    -0.071000000
H    -0.863000000    -1.021000000    -0.940000000
H     0.538000000    -1.737000000    -0.027000000
H    -0.836000000    -1.172000000     0.791000000
C     1.752000000     0.467000000     0.606000000
H     2.212000000    -0.434000000     1.005000000
C     2.382000000     1.719000000     0.685000000
H     3.287000000     1.861000000     1.270000000
C     1.717000000     2.834000000     0.159000000
C     2.343000000     4.232000000     0.315000000
O     3.416000000     4.380000000     0.940000000
O     1.715000000     5.206000000     0.102000000
