17
-88.63386
C    -0.420000000     2.350000000     0.216000000
H    -1.114000000     3.169000000     0.049000000
C    -0.631000000     1.010000000    -0.177000000
H    -1.511000000     0.722000000    -0.746000000
C     0.397000000     0.085000000    -0.069000000
C     0.006000000    -1.256000000    -0.559000000
H    -0.291000000    -1.164000000    -1.606000000
H     0.816000000    -1.975000000    -0.408000000
H    -0.849000000    -1.603000000     0.024000000
C     1.550000000     0.420000000     0.633000000
H     2.289000000    -0.336000000     0.885000000
C     1.810000000     1.763000000     1.021000000
H     2.727000000     1.885000000     1.593000000
C     0.798000000     2.750000000     0.751000000
C     1.088000000     4.124000000     1.047000000
O     2.193000000     4.432000000     1.343000000
O     0.184000000     4.980000000     1.113000000
