17
-82.25427
C    -1.085000000     1.873000000     1.075000000
H    -1.890000000     2.603000000     1.096000000
C    -1.099000000     0.862000000     0.132000000
H    -1.890000000     0.898000000    -0.613000000
C    -0.154000000    -0.113000000     0.065000000
C    -0.264000000    -1.298000000    -0.827000000
H    -0.355000000    -2.094000000    -0.086000000
H    -1.172000000    -1.302000000    -1.434000000
H     0.671000000    -1.557000000    -1.330000000
C     0.893000000    -0.028000000     1.000000000
H     1.680000000    -0.778000000     0.992000000
C     1.008000000     0.994000000     1.859000000
H     1.855000000     1.022000000     2.541000000
C    -0.023000000     1.973000000     1.947000000
C     0.001000000     3.089000000     2.900000000
O     0.831000000     2.950000000     3.751000000
O    -0.850000000     3.884000000     3.035000000
