17
-80.92647
C    -1.105000000     2.632000000     0.934000000
H    -1.828000000     3.439000000     0.844000000
C    -1.411000000     1.355000000     0.453000000
H    -2.225000000     1.268000000    -0.263000000
C    -0.466000000     0.364000000     0.509000000
C    -0.771000000    -0.934000000    -0.098000000
H    -1.640000000    -0.719000000    -0.724000000
H    -0.047000000    -1.159000000    -0.883000000
H    -0.830000000    -1.641000000     0.732000000
C     0.771000000     0.570000000     1.114000000
H     1.548000000    -0.169000000     0.934000000
C     1.064000000     1.804000000     1.588000000
H     2.019000000     1.995000000     2.070000000
C     0.104000000     2.778000000     1.612000000
C     0.337000000     4.125000000     2.188000000
O     1.441000000     4.391000000     2.546000000
O    -0.479000000     5.034000000     2.261000000
