17
-92.95108
C    -1.183000000     2.175000000     0.631000000
H    -2.052000000     2.826000000     0.686000000
C    -1.133000000     1.040000000    -0.176000000
H    -2.039000000     0.713000000    -0.681000000
C    -0.008000000     0.177000000    -0.118000000
C    -0.103000000    -1.185000000    -0.725000000
H    -1.037000000    -1.682000000    -0.454000000
H    -0.240000000    -1.107000000    -1.805000000
H     0.756000000    -1.797000000    -0.440000000
C     0.986000000     0.509000000     0.753000000
H     1.784000000    -0.198000000     0.964000000
C     0.934000000     1.598000000     1.587000000
H     1.685000000     1.744000000     2.359000000
C    -0.133000000     2.485000000     1.521000000
C    -0.243000000     3.526000000     2.624000000
O     0.431000000     3.508000000     3.593000000
O    -0.963000000     4.496000000     2.365000000
