17
-95.52741
C    -0.470000000     2.073000000     1.526000000
H    -1.124000000     2.894000000     1.810000000
C    -0.856000000     1.165000000     0.538000000
H    -1.850000000     1.311000000     0.123000000
C     0.074000000     0.250000000     0.113000000
C    -0.241000000    -0.733000000    -0.924000000
H     0.129000000    -0.452000000    -1.912000000
H     0.128000000    -1.708000000    -0.599000000
H    -1.297000000    -1.007000000    -0.958000000
C     1.309000000     0.200000000     0.652000000
H     2.043000000    -0.526000000     0.311000000
C     1.734000000     1.138000000     1.573000000
H     2.808000000     1.166000000     1.742000000
C     0.817000000     2.077000000     2.063000000
C     1.302000000     3.196000000     3.070000000
O     2.406000000     3.104000000     3.582000000
O     0.542000000     4.120000000     3.402000000
