17
-101.28199
C    -0.452000000     1.876000000     2.326000000
H    -1.082000000     2.368000000     3.062000000
C    -0.993000000     1.212000000     1.203000000
H    -2.076000000     1.148000000     1.137000000
C    -0.203000000     0.596000000     0.265000000
C    -0.831000000    -0.334000000    -0.729000000
H    -1.707000000     0.157000000    -1.159000000
H    -0.123000000    -0.540000000    -1.534000000
H    -1.082000000    -1.279000000    -0.242000000
C     1.178000000     0.683000000     0.387000000
H     1.755000000     0.218000000    -0.408000000
C     1.708000000     1.419000000     1.444000000
H     2.790000000     1.516000000     1.422000000
C     0.929000000     2.014000000     2.439000000
C     1.553000000     2.844000000     3.550000000
O     2.753000000     2.743000000     3.791000000
O     0.863000000     3.617000000     4.189000000
