17
-92.02211
C    -1.027000000     1.537000000     2.059000000
H    -1.837000000     1.992000000     2.623000000
C    -1.209000000     0.683000000     0.889000000
H    -2.124000000     0.478000000     0.339000000
C    -0.111000000    -0.068000000     0.369000000
C    -0.378000000    -1.159000000    -0.616000000
H    -1.416000000    -1.280000000    -0.931000000
H     0.244000000    -0.963000000    -1.492000000
H    -0.055000000    -2.102000000    -0.169000000
C     1.135000000     0.179000000     0.944000000
H     1.982000000    -0.428000000     0.637000000
C     1.352000000     1.059000000     2.019000000
H     2.381000000     1.130000000     2.364000000
C     0.234000000     1.677000000     2.593000000
C     0.453000000     2.504000000     3.824000000
O     1.579000000     2.843000000     4.077000000
O    -0.433000000     2.782000000     4.611000000
