17
-92.69223
C    -1.229000000     1.946000000     1.736000000
H    -2.063000000     2.600000000     1.979000000
C    -1.366000000     0.943000000     0.689000000
H    -2.194000000     1.046000000    -0.008000000
C    -0.290000000    -0.006000000     0.559000000
C    -0.375000000    -0.962000000    -0.565000000
H    -0.630000000    -1.936000000    -0.143000000
H    -1.111000000    -0.621000000    -1.297000000
H     0.613000000    -0.989000000    -1.029000000
C     0.887000000     0.044000000     1.334000000
H     1.718000000    -0.629000000     1.135000000
C     1.027000000     1.098000000     2.285000000
H     1.929000000     1.277000000     2.864000000
C    -0.044000000     2.039000000     2.459000000
C     0.091000000     3.127000000     3.512000000
O     1.021000000     3.232000000     4.232000000
O    -0.749000000     4.051000000     3.457000000
