17
-78.23935
C    -1.518000000     1.871000000     1.642000000
H    -2.400000000     2.486000000     1.799000000
C    -1.503000000     1.057000000     0.505000000
H    -2.310000000     1.102000000    -0.222000000
C    -0.440000000     0.305000000     0.133000000
C    -0.414000000    -0.527000000    -1.024000000
H    -0.062000000    -1.546000000    -0.848000000
H    -1.322000000    -0.647000000    -1.619000000
H     0.337000000    -0.171000000    -1.732000000
C     0.625000000     0.233000000     0.954000000
H     1.538000000    -0.292000000     0.687000000
C     0.595000000     0.909000000     2.204000000
H     1.524000000     0.854000000     2.766000000
C    -0.441000000     1.794000000     2.511000000
C    -0.484000000     2.476000000     3.834000000
O     0.505000000     2.798000000     4.370000000
O    -1.511000000     2.991000000     4.210000000
