17
-98.59008
C    -1.274000000     2.189000000     1.652000000
H    -2.065000000     2.926000000     1.540000000
C    -1.124000000     1.383000000     0.583000000
H    -1.770000000     1.460000000    -0.288000000
C    -0.179000000     0.376000000     0.599000000
C    -0.017000000    -0.682000000    -0.492000000
H    -0.247000000    -0.308000000    -1.492000000
H     0.986000000    -1.108000000    -0.566000000
H    -0.689000000    -1.524000000    -0.316000000
C     0.539000000     0.160000000     1.794000000
H     1.226000000    -0.670000000     1.937000000
C     0.283000000     0.963000000     2.967000000
H     0.878000000     0.825000000     3.866000000
C    -0.624000000     2.021000000     2.875000000
C    -0.770000000     2.995000000     4.051000000
O    -0.053000000     2.824000000     5.023000000
O    -1.630000000     3.856000000     4.014000000
