17
-88.14381
C    -1.204000000     1.822000000     1.659000000
H    -2.075000000     2.416000000     1.925000000
C    -1.296000000     0.908000000     0.582000000
H    -2.146000000     0.771000000    -0.082000000
C    -0.193000000     0.056000000     0.387000000
C    -0.156000000    -1.034000000    -0.715000000
H     0.390000000    -0.740000000    -1.614000000
H     0.302000000    -1.975000000    -0.404000000
H    -1.196000000    -1.162000000    -1.025000000
C     0.883000000     0.174000000     1.170000000
H     1.662000000    -0.566000000     1.005000000
C     1.040000000     1.124000000     2.143000000
H     1.922000000     1.122000000     2.779000000
C    -0.021000000     2.010000000     2.451000000
C     0.046000000     3.022000000     3.583000000
O     1.130000000     3.239000000     4.089000000
O    -0.836000000     3.788000000     3.878000000
