17
-90.44498
C    -0.981000000     1.997000000     1.736000000
H    -1.786000000     2.723000000     1.816000000
C    -0.965000000     1.147000000     0.630000000
H    -1.724000000     1.195000000    -0.147000000
C     0.052000000     0.212000000     0.468000000
C    -0.131000000    -0.841000000    -0.580000000
H    -1.079000000    -1.336000000    -0.360000000
H    -0.276000000    -0.355000000    -1.547000000
H     0.665000000    -1.578000000    -0.700000000
C     1.043000000     0.170000000     1.434000000
H     1.864000000    -0.531000000     1.306000000
C     1.062000000     1.070000000     2.517000000
H     1.928000000     1.077000000     3.174000000
C     0.037000000     2.030000000     2.648000000
C     0.095000000     3.154000000     3.634000000
O     1.117000000     3.270000000     4.318000000
O    -0.615000000     4.102000000     3.624000000
