17
-93.45332
C     0.040000000     2.579000000     1.445000000
H    -0.599000000     3.451000000     1.564000000
C    -0.340000000     1.492000000     0.673000000
H    -1.350000000     1.428000000     0.276000000
C     0.459000000     0.450000000     0.398000000
C    -0.097000000    -0.613000000    -0.500000000
H     0.527000000    -1.505000000    -0.586000000
H    -1.118000000    -0.897000000    -0.235000000
H    -0.123000000    -0.170000000    -1.498000000
C     1.774000000     0.381000000     0.857000000
H     2.382000000    -0.470000000     0.561000000
C     2.240000000     1.466000000     1.683000000
H     3.244000000     1.425000000     2.096000000
C     1.342000000     2.561000000     1.923000000
C     1.778000000     3.753000000     2.783000000
O     2.844000000     3.767000000     3.350000000
O     1.040000000     4.705000000     2.970000000
