17
-97.55962
C    -0.277000000     2.085000000     1.651000000
H    -0.898000000     2.921000000     1.965000000
C    -0.774000000     1.254000000     0.638000000
H    -1.783000000     1.393000000     0.259000000
C     0.003000000     0.172000000     0.249000000
C    -0.568000000    -0.827000000    -0.744000000
H    -0.526000000    -1.885000000    -0.477000000
H    -1.621000000    -0.628000000    -0.952000000
H    -0.139000000    -0.631000000    -1.729000000
C     1.341000000     0.044000000     0.725000000
H     1.825000000    -0.871000000     0.392000000
C     1.830000000     0.916000000     1.674000000
H     2.840000000     0.803000000     2.060000000
C     1.028000000     1.913000000     2.156000000
C     1.569000000     2.931000000     3.179000000
O     2.753000000     2.906000000     3.508000000
O     0.918000000     3.903000000     3.577000000
