17
-91.42145
C    -0.846000000     2.627000000     1.605000000
H    -1.402000000     3.560000000     1.563000000
C    -1.017000000     1.665000000     0.617000000
H    -1.682000000     1.892000000    -0.212000000
C    -0.327000000     0.431000000     0.713000000
C    -0.631000000    -0.642000000    -0.278000000
H    -1.304000000    -0.337000000    -1.083000000
H     0.330000000    -1.052000000    -0.597000000
H    -0.997000000    -1.511000000     0.272000000
C     0.632000000     0.268000000     1.624000000
H     1.167000000    -0.678000000     1.643000000
C     0.881000000     1.265000000     2.547000000
H     1.600000000     1.131000000     3.352000000
C     0.179000000     2.486000000     2.547000000
C     0.307000000     3.503000000     3.639000000
O     1.213000000     3.404000000     4.391000000
O    -0.383000000     4.530000000     3.643000000
