17
-91.55232
C    -0.031000000     2.447000000     2.221000000
H    -0.551000000     3.318000000     2.612000000
C    -0.658000000     1.333000000     1.529000000
H    -1.740000000     1.311000000     1.421000000
C     0.094000000     0.260000000     1.054000000
C    -0.622000000    -0.933000000     0.400000000
H    -1.680000000    -0.732000000     0.224000000
H    -0.085000000    -1.342000000    -0.458000000
H    -0.528000000    -1.683000000     1.188000000
C     1.469000000     0.320000000     1.183000000
H     2.065000000    -0.566000000     0.979000000
C     2.081000000     1.384000000     1.823000000
H     3.155000000     1.385000000     1.991000000
C     1.338000000     2.432000000     2.343000000
C     2.023000000     3.621000000     2.977000000
O     3.215000000     3.478000000     3.171000000
O     1.444000000     4.533000000     3.438000000
