17
-96.75404
C     0.287000000     1.778000000     2.301000000
H    -0.319000000     2.491000000     2.853000000
C    -0.327000000     1.100000000     1.246000000
H    -1.326000000     1.348000000     0.896000000
C     0.367000000     0.116000000     0.530000000
C    -0.464000000    -0.611000000    -0.539000000
H    -1.486000000    -0.423000000    -0.202000000
H    -0.240000000    -0.156000000    -1.506000000
H    -0.284000000    -1.687000000    -0.562000000
C     1.699000000    -0.175000000     0.834000000
H     2.212000000    -0.859000000     0.163000000
C     2.376000000     0.602000000     1.817000000
H     3.417000000     0.387000000     2.045000000
C     1.665000000     1.634000000     2.535000000
C     2.475000000     2.605000000     3.455000000
O     3.698000000     2.618000000     3.250000000
O     1.958000000     3.307000000     4.270000000
