17
-97.32190
C    -0.052000000     2.311000000     2.239000000
H    -0.773000000     2.954000000     2.737000000
C    -0.470000000     1.419000000     1.310000000
H    -1.514000000     1.339000000     1.019000000
C     0.398000000     0.596000000     0.637000000
C    -0.168000000    -0.341000000    -0.437000000
H     0.052000000     0.164000000    -1.380000000
H     0.107000000    -1.382000000    -0.257000000
H    -1.251000000    -0.480000000    -0.443000000
C     1.742000000     0.563000000     1.018000000
H     2.393000000    -0.162000000     0.536000000
C     2.219000000     1.396000000     2.084000000
H     3.219000000     1.276000000     2.492000000
C     1.285000000     2.277000000     2.714000000
C     1.652000000     3.165000000     3.872000000
O     2.827000000     3.415000000     4.088000000
O     0.736000000     3.684000000     4.536000000
