17
-89.40720
C    -0.592000000     2.043000000     1.714000000
H    -1.311000000     2.687000000     2.215000000
C    -1.033000000     1.113000000     0.856000000
H    -2.074000000     1.131000000     0.544000000
C    -0.126000000     0.113000000     0.391000000
C    -0.625000000    -1.069000000    -0.452000000
H    -0.196000000    -2.007000000    -0.095000000
H    -1.715000000    -1.101000000    -0.391000000
H    -0.466000000    -1.006000000    -1.530000000
C     1.141000000     0.194000000     0.830000000
H     1.807000000    -0.597000000     0.495000000
C     1.666000000     1.180000000     1.636000000
H     2.731000000     1.202000000     1.853000000
C     0.764000000     2.156000000     2.120000000
C     1.247000000     3.340000000     2.915000000
O     2.436000000     3.598000000     2.914000000
O     0.432000000     4.219000000     3.102000000
