17
-96.45926
C    -0.458000000     1.737000000     1.702000000
H    -1.088000000     2.424000000     2.261000000
C    -0.976000000     0.920000000     0.675000000
H    -2.019000000     1.063000000     0.402000000
C    -0.244000000    -0.113000000     0.092000000
C    -0.900000000    -1.129000000    -0.899000000
H    -0.350000000    -1.252000000    -1.834000000
H    -0.974000000    -2.148000000    -0.513000000
H    -1.891000000    -0.753000000    -1.163000000
C     1.062000000    -0.319000000     0.496000000
H     1.663000000    -1.058000000    -0.028000000
C     1.644000000     0.541000000     1.470000000
H     2.696000000     0.499000000     1.742000000
C     0.879000000     1.555000000     2.041000000
C     1.421000000     2.530000000     3.049000000
O     2.537000000     2.295000000     3.479000000
O     0.900000000     3.605000000     3.202000000
