17
-95.08432
C    -0.222000000    -2.340000000     0.322000000
H     0.348000000    -3.218000000     0.617000000
C     0.310000000    -1.064000000     0.587000000
H     1.169000000    -0.972000000     1.247000000
C    -0.294000000     0.117000000     0.099000000
C     0.322000000     1.430000000     0.382000000
H     0.857000000     1.547000000     1.327000000
H     1.191000000     1.490000000    -0.277000000
H    -0.327000000     2.283000000     0.172000000
C    -1.391000000    -0.071000000    -0.755000000
H    -1.993000000     0.763000000    -1.108000000
C    -1.893000000    -1.319000000    -1.087000000
H    -2.684000000    -1.410000000    -1.828000000
C    -1.310000000    -2.501000000    -0.515000000
C    -1.969000000    -3.772000000    -0.736000000
O    -2.878000000    -3.726000000    -1.554000000
O    -1.596000000    -4.838000000    -0.264000000
