17
-93.06049
C     0.278000000     2.414000000     1.559000000
H    -0.085000000     3.427000000     1.712000000
C    -0.395000000     1.572000000     0.732000000
H    -1.242000000     1.987000000     0.192000000
C     0.088000000     0.276000000     0.544000000
C    -0.691000000    -0.698000000    -0.271000000
H    -1.637000000    -0.240000000    -0.567000000
H    -0.142000000    -0.877000000    -1.199000000
H    -0.873000000    -1.650000000     0.232000000
C     1.179000000    -0.169000000     1.313000000
H     1.576000000    -1.178000000     1.224000000
C     1.724000000     0.650000000     2.308000000
H     2.493000000     0.235000000     2.954000000
C     1.385000000     1.987000000     2.314000000
C     1.994000000     2.945000000     3.361000000
O     2.895000000     2.584000000     4.047000000
O     1.613000000     4.078000000     3.456000000
