17
-98.75205
C     0.202000000     2.796000000     0.572000000
H    -0.189000000     3.806000000     0.479000000
C    -0.512000000     1.735000000     0.007000000
H    -1.394000000     2.013000000    -0.564000000
C    -0.056000000     0.453000000     0.202000000
C    -0.791000000    -0.703000000    -0.398000000
H    -1.754000000    -0.855000000     0.094000000
H    -0.925000000    -0.411000000    -1.442000000
H    -0.272000000    -1.664000000    -0.416000000
C     1.089000000     0.256000000     0.899000000
H     1.454000000    -0.752000000     1.076000000
C     1.884000000     1.298000000     1.358000000
H     2.779000000     1.037000000     1.917000000
C     1.399000000     2.585000000     1.312000000
C     2.133000000     3.797000000     1.916000000
O     3.150000000     3.603000000     2.508000000
O     1.695000000     4.894000000     1.603000000
