17
-95.46923
C    -0.038000000     2.758000000     1.370000000
H    -0.497000000     3.742000000     1.323000000
C    -0.679000000     1.658000000     0.682000000
H    -1.512000000     1.824000000     0.004000000
C    -0.011000000     0.418000000     0.457000000
C    -0.692000000    -0.666000000    -0.408000000
H    -0.103000000    -0.903000000    -1.297000000
H    -0.719000000    -1.604000000     0.150000000
H    -1.739000000    -0.404000000    -0.574000000
C     1.284000000     0.284000000     1.030000000
H     1.848000000    -0.644000000     0.986000000
C     1.892000000     1.361000000     1.695000000
H     2.895000000     1.266000000     2.103000000
C     1.200000000     2.584000000     1.920000000
C     1.854000000     3.688000000     2.635000000
O     3.053000000     3.584000000     2.869000000
O     1.196000000     4.652000000     3.009000000
