17
-94.33635
C     0.070000000     2.636000000     1.195000000
H    -0.424000000     3.603000000     1.142000000
C    -0.402000000     1.648000000     0.346000000
H    -1.216000000     1.933000000    -0.316000000
C     0.189000000     0.376000000     0.325000000
C    -0.491000000    -0.740000000    -0.370000000
H    -0.031000000    -0.699000000    -1.359000000
H    -0.287000000    -1.692000000     0.124000000
H    -1.565000000    -0.710000000    -0.565000000
C     1.347000000     0.158000000     1.073000000
H     1.889000000    -0.784000000     1.038000000
C     1.825000000     1.134000000     1.931000000
H     2.638000000     0.884000000     2.608000000
C     1.149000000     2.365000000     2.015000000
C     1.621000000     3.521000000     2.917000000
O     2.596000000     3.387000000     3.608000000
O     1.166000000     4.636000000     2.772000000
