17
-91.80543
C    -0.254000000     3.036000000     1.178000000
H    -0.668000000     4.039000000     1.252000000
C    -0.602000000     2.024000000     0.269000000
H    -1.324000000     2.143000000    -0.536000000
C    -0.155000000     0.719000000     0.383000000
C    -0.674000000    -0.284000000    -0.674000000
H    -1.627000000     0.053000000    -1.086000000
H     0.184000000    -0.430000000    -1.333000000
H    -0.824000000    -1.227000000    -0.144000000
C     0.738000000     0.423000000     1.389000000
H     1.262000000    -0.529000000     1.417000000
C     1.026000000     1.355000000     2.355000000
H     1.530000000     1.010000000     3.255000000
C     0.544000000     2.724000000     2.288000000
C     0.991000000     3.702000000     3.346000000
O     1.900000000     3.407000000     4.075000000
O     0.613000000     4.889000000     3.256000000
