17
-95.30973
C    -0.097000000     2.175000000     1.228000000
H    -0.649000000     3.100000000     1.370000000
C    -0.489000000     1.229000000     0.240000000
H    -1.230000000     1.439000000    -0.526000000
C     0.111000000    -0.028000000     0.183000000
C    -0.459000000    -1.157000000    -0.636000000
H    -1.538000000    -1.262000000    -0.505000000
H    -0.181000000    -0.846000000    -1.645000000
H     0.130000000    -2.052000000    -0.424000000
C     1.091000000    -0.353000000     1.109000000
H     1.621000000    -1.302000000     1.064000000
C     1.496000000     0.607000000     2.038000000
H     2.259000000     0.356000000     2.770000000
C     0.927000000     1.800000000     2.126000000
C     1.350000000     2.767000000     3.212000000
O     2.118000000     2.342000000     4.082000000
O     0.870000000     3.865000000     3.269000000
