17
-89.68440
C    -0.187000000     2.872000000     0.855000000
H    -0.591000000     3.842000000     0.579000000
C    -0.598000000     1.803000000     0.063000000
H    -1.378000000     2.086000000    -0.639000000
C    -0.025000000     0.546000000     0.183000000
C    -0.467000000    -0.592000000    -0.698000000
H    -1.494000000    -0.382000000    -1.005000000
H     0.135000000    -0.856000000    -1.570000000
H    -0.543000000    -1.491000000    -0.082000000
C     0.943000000     0.286000000     1.158000000
H     1.524000000    -0.620000000     1.310000000
C     1.225000000     1.387000000     2.024000000
H     1.938000000     1.142000000     2.807000000
C     0.722000000     2.684000000     1.842000000
C     1.324000000     3.830000000     2.605000000
O     2.056000000     3.612000000     3.525000000
O     1.079000000     4.896000000     2.189000000
