17
-92.29516
C     0.173000000     2.760000000     1.310000000
H    -0.215000000     3.763000000     1.155000000
C    -0.284000000     1.725000000     0.462000000
H    -0.914000000     1.994000000    -0.382000000
C     0.210000000     0.437000000     0.680000000
C    -0.296000000    -0.663000000    -0.173000000
H    -1.355000000    -0.538000000    -0.406000000
H     0.291000000    -0.484000000    -1.077000000
H    -0.021000000    -1.643000000     0.224000000
C     1.075000000     0.230000000     1.737000000
H     1.363000000    -0.795000000     1.957000000
C     1.651000000     1.265000000     2.480000000
H     2.401000000     1.051000000     3.237000000
C     1.209000000     2.557000000     2.279000000
C     1.763000000     3.750000000     2.917000000
O     2.400000000     3.530000000     3.919000000
O     1.908000000     4.776000000     2.261000000
