17
-85.09496
C     0.106000000     2.530000000     1.001000000
H    -0.429000000     3.471000000     0.905000000
C    -0.562000000     1.432000000     0.388000000
H    -1.489000000     1.643000000    -0.138000000
C     0.096000000     0.191000000     0.405000000
C    -0.602000000    -0.825000000    -0.377000000
H    -0.176000000    -1.771000000    -0.035000000
H    -1.664000000    -0.769000000    -0.129000000
H    -0.466000000    -0.582000000    -1.432000000
C     1.216000000     0.063000000     1.107000000
H     1.701000000    -0.908000000     1.053000000
C     1.829000000     1.091000000     1.845000000
H     2.693000000     0.841000000     2.455000000
C     1.230000000     2.338000000     1.818000000
C     1.776000000     3.421000000     2.660000000
O     2.711000000     3.120000000     3.355000000
O     1.070000000     4.390000000     2.984000000
