17
-92.31940
C     1.205000000     2.724000000     0.123000000
H     1.487000000     3.475000000    -0.610000000
C     0.500000000     1.677000000    -0.432000000
H     0.224000000     1.580000000    -1.479000000
C     0.027000000     0.611000000     0.357000000
C    -0.788000000    -0.528000000    -0.189000000
H    -1.283000000    -0.961000000     0.683000000
H    -1.502000000    -0.343000000    -0.994000000
H    -0.162000000    -1.371000000    -0.487000000
C     0.334000000     0.715000000     1.691000000
H     0.073000000    -0.057000000     2.411000000
C     1.023000000     1.766000000     2.274000000
H     1.237000000     1.766000000     3.339000000
C     1.389000000     2.862000000     1.513000000
C     2.243000000     3.952000000     2.110000000
O     2.751000000     3.784000000     3.171000000
O     2.508000000     4.897000000     1.399000000
