17
-94.63435
C     0.449000000     2.029000000     2.541000000
H     0.031000000     2.844000000     3.127000000
C    -0.278000000     1.294000000     1.623000000
H    -1.289000000     1.668000000     1.484000000
C     0.258000000     0.228000000     0.872000000
C    -0.403000000    -0.487000000    -0.320000000
H     0.119000000    -1.433000000    -0.484000000
H    -1.433000000    -0.734000000    -0.056000000
H    -0.375000000     0.116000000    -1.229000000
C     1.646000000     0.080000000     0.986000000
H     2.188000000    -0.685000000     0.436000000
C     2.407000000     0.760000000     1.920000000
H     3.464000000     0.506000000     1.931000000
C     1.808000000     1.800000000     2.672000000
C     2.661000000     2.808000000     3.460000000
O     3.882000000     2.793000000     3.369000000
O     2.086000000     3.777000000     3.923000000
