17
-89.24372
C     0.734000000     2.268000000    -0.176000000
H     0.364000000     3.214000000    -0.564000000
C    -0.208000000     1.297000000    -0.146000000
H    -1.201000000     1.612000000    -0.457000000
C     0.053000000     0.028000000     0.309000000
C    -1.067000000    -0.989000000     0.265000000
H    -1.922000000    -0.576000000    -0.274000000
H    -0.902000000    -1.953000000    -0.221000000
H    -1.379000000    -1.195000000     1.291000000
C     1.319000000    -0.381000000     0.730000000
H     1.631000000    -1.349000000     1.113000000
C     2.283000000     0.630000000     0.686000000
H     3.281000000     0.560000000     1.111000000
C     2.008000000     1.948000000     0.267000000
C     3.019000000     3.102000000     0.513000000
O     4.149000000     3.039000000     0.993000000
O     2.578000000     4.162000000     0.198000000
