17
-96.07577
C     1.423000000     0.618000000     1.872000000
H     1.504000000     1.022000000     2.878000000
C     0.187000000     0.171000000     1.397000000
H    -0.678000000     0.150000000     2.055000000
C    -0.007000000    -0.214000000     0.119000000
C    -1.468000000    -0.590000000    -0.407000000
H    -1.358000000    -1.246000000    -1.272000000
H    -2.159000000    -1.194000000     0.185000000
H    -2.020000000     0.336000000    -0.585000000
C     1.014000000    -0.034000000    -0.832000000
H     0.770000000    -0.261000000    -1.867000000
C     2.262000000     0.354000000    -0.387000000
H     3.058000000     0.502000000    -1.112000000
C     2.526000000     0.596000000     0.979000000
C     3.926000000     1.007000000     1.440000000
O     4.818000000     1.141000000     0.619000000
O     4.054000000     1.304000000     2.630000000
