17
-94.77881
C     1.940000000     1.456000000    -0.113000000
H     2.356000000     2.412000000    -0.422000000
C     0.621000000     1.020000000    -0.337000000
H    -0.179000000     1.658000000    -0.705000000
C     0.227000000    -0.288000000    -0.088000000
C    -1.175000000    -0.590000000    -0.438000000
H    -1.832000000     0.048000000     0.156000000
H    -1.273000000    -0.370000000    -1.503000000
H    -1.456000000    -1.620000000    -0.211000000
C     1.125000000    -1.270000000     0.228000000
H     0.882000000    -2.298000000     0.482000000
C     2.417000000    -0.843000000     0.576000000
H     3.091000000    -1.606000000     0.958000000
C     2.809000000     0.495000000     0.402000000
C     4.201000000     0.973000000     0.760000000
O     5.026000000     0.113000000     0.696000000
O     4.410000000     2.170000000     0.892000000
