17
-99.29716
C     2.037000000     1.412000000     0.618000000
H     2.710000000     1.606000000     1.449000000
C     0.938000000     0.482000000     0.750000000
H     0.701000000    -0.010000000     1.690000000
C     0.203000000     0.162000000    -0.388000000
C    -1.018000000    -0.733000000    -0.241000000
H    -0.609000000    -1.686000000     0.100000000
H    -1.813000000    -0.346000000     0.400000000
H    -1.618000000    -0.937000000    -1.131000000
C     0.525000000     0.681000000    -1.624000000
H    -0.205000000     0.531000000    -2.415000000
C     1.685000000     1.519000000    -1.763000000
H     1.999000000     1.785000000    -2.769000000
C     2.392000000     1.910000000    -0.623000000
C     3.547000000     2.873000000    -0.689000000
O     3.912000000     3.213000000    -1.829000000
O     4.121000000     3.251000000     0.322000000
