17
-89.47518
C     1.885000000    -0.138000000     1.594000000
H     2.314000000    -0.233000000     2.588000000
C     0.508000000    -0.248000000     1.386000000
H    -0.047000000    -0.537000000     2.275000000
C     0.065000000    -0.200000000     0.056000000
C    -1.377000000    -0.566000000    -0.131000000
H    -1.934000000     0.297000000    -0.502000000
H    -1.326000000    -1.411000000    -0.820000000
H    -1.803000000    -0.828000000     0.840000000
C     0.930000000    -0.005000000    -0.971000000
H     0.538000000     0.061000000    -1.983000000
C     2.292000000     0.235000000    -0.813000000
H     3.055000000     0.358000000    -1.577000000
C     2.797000000     0.172000000     0.537000000
C     4.225000000     0.379000000     0.973000000
O     5.001000000     0.732000000     0.065000000
O     4.516000000     0.567000000     2.114000000
