17
-92.08615
C     2.748000000     2.232000000     1.563000000
H     3.198000000     3.109000000     2.021000000
C     1.572000000     2.256000000     0.909000000
H     1.166000000     3.254000000     0.768000000
C     1.022000000     1.100000000     0.346000000
C    -0.226000000     1.316000000    -0.446000000
H    -0.859000000     2.140000000    -0.107000000
H     0.048000000     1.380000000    -1.501000000
H    -0.772000000     0.370000000    -0.468000000
C     1.605000000    -0.147000000     0.562000000
H     1.192000000    -1.085000000     0.198000000
C     2.783000000    -0.144000000     1.305000000
H     3.363000000    -1.056000000     1.417000000
C     3.379000000     1.025000000     1.764000000
C     4.774000000     1.002000000     2.330000000
O     5.352000000    -0.029000000     2.153000000
O     5.180000000     1.913000000     2.964000000
