17
-93.50495
C     1.559000000     1.805000000     1.552000000
H     1.606000000     2.771000000     2.049000000
C     0.331000000     1.270000000     1.129000000
H    -0.571000000     1.845000000     1.324000000
C     0.273000000     0.148000000     0.310000000
C    -1.047000000    -0.307000000    -0.140000000
H    -1.046000000    -0.755000000    -1.136000000
H    -1.441000000    -1.111000000     0.485000000
H    -1.781000000     0.493000000    -0.023000000
C     1.419000000    -0.496000000    -0.010000000
H     1.412000000    -1.356000000    -0.675000000
C     2.634000000    -0.079000000     0.438000000
H     3.425000000    -0.773000000     0.164000000
C     2.759000000     1.090000000     1.226000000
C     4.105000000     1.622000000     1.688000000
O     5.054000000     0.979000000     1.334000000
O     4.198000000     2.691000000     2.227000000
