17
-98.55719
C     1.271000000     1.614000000     1.645000000
H     1.209000000     2.534000000     2.220000000
C     0.383000000     1.350000000     0.651000000
H    -0.325000000     2.124000000     0.365000000
C     0.237000000     0.041000000     0.131000000
C    -0.902000000    -0.174000000    -0.818000000
H    -1.682000000     0.585000000    -0.723000000
H    -0.537000000    -0.181000000    -1.847000000
H    -1.308000000    -1.176000000    -0.664000000
C     1.025000000    -1.027000000     0.609000000
H     0.960000000    -2.023000000     0.179000000
C     1.959000000    -0.774000000     1.632000000
H     2.378000000    -1.620000000     2.171000000
C     2.058000000     0.541000000     2.170000000
C     3.042000000     0.865000000     3.269000000
O     3.501000000    -0.088000000     3.886000000
O     3.240000000     2.024000000     3.546000000
