17
-99.48670
C     1.634000000     1.583000000     1.703000000
H     1.669000000     2.466000000     2.335000000
C     0.385000000     1.019000000     1.268000000
H    -0.555000000     1.533000000     1.452000000
C     0.381000000    -0.160000000     0.492000000
C    -0.884000000    -0.788000000     0.032000000
H    -1.029000000    -1.824000000     0.344000000
H    -1.732000000    -0.186000000     0.366000000
H    -0.930000000    -0.646000000    -1.049000000
C     1.621000000    -0.780000000     0.133000000
H     1.761000000    -1.735000000    -0.367000000
C     2.823000000    -0.167000000     0.557000000
H     3.766000000    -0.600000000     0.232000000
C     2.822000000     0.922000000     1.440000000
C     4.118000000     1.441000000     2.028000000
O     5.245000000     1.030000000     1.719000000
O     3.965000000     2.314000000     2.855000000
