17
-91.51875
C     1.438000000     1.521000000     1.871000000
H     1.445000000     2.449000000     2.438000000
C     0.253000000     1.182000000     1.157000000
H    -0.557000000     1.907000000     1.149000000
C     0.179000000    -0.011000000     0.436000000
C    -1.039000000    -0.400000000    -0.414000000
H    -1.326000000    -1.422000000    -0.157000000
H    -1.841000000     0.299000000    -0.165000000
H    -0.841000000    -0.183000000    -1.465000000
C     1.344000000    -0.777000000     0.361000000
H     1.325000000    -1.656000000    -0.278000000
C     2.516000000    -0.490000000     1.016000000
H     3.428000000    -1.047000000     0.816000000
C     2.500000000     0.666000000     1.873000000
C     3.763000000     1.050000000     2.595000000
O     4.829000000     0.822000000     2.023000000
O     3.813000000     1.709000000     3.575000000
