17
-92.96866
C    -0.022000000     2.334000000     1.830000000
H    -0.393000000     3.301000000     2.158000000
C    -0.637000000     1.557000000     0.852000000
H    -1.653000000     1.852000000     0.605000000
C    -0.092000000     0.366000000     0.390000000
C    -0.856000000    -0.504000000    -0.522000000
H    -1.822000000    -0.131000000    -0.871000000
H    -0.284000000    -0.659000000    -1.439000000
H    -1.038000000    -1.501000000    -0.116000000
C     1.249000000     0.131000000     0.667000000
H     1.877000000    -0.631000000     0.213000000
C     1.923000000     0.982000000     1.506000000
H     2.919000000     0.730000000     1.859000000
C     1.270000000     2.070000000     2.123000000
C     2.035000000     2.850000000     3.161000000
O     3.251000000     2.837000000     3.222000000
O     1.409000000     3.506000000     3.952000000
