17
-92.25120
C     0.343000000     2.972000000     1.401000000
H     0.360000000     4.045000000     1.230000000
C     0.032000000     2.115000000     0.294000000
H    -0.425000000     2.467000000    -0.626000000
C     0.224000000     0.709000000     0.502000000
C    -0.253000000    -0.224000000    -0.523000000
H     0.133000000    -0.053000000    -1.530000000
H    -0.017000000    -1.241000000    -0.202000000
H    -1.344000000    -0.244000000    -0.552000000
C     0.848000000     0.238000000     1.684000000
H     1.120000000    -0.813000000     1.732000000
C     1.317000000     1.129000000     2.679000000
H     1.905000000     0.691000000     3.482000000
C     1.035000000     2.493000000     2.540000000
C     1.547000000     3.548000000     3.532000000
O     2.386000000     3.178000000     4.372000000
O     1.407000000     4.711000000     3.342000000
