17
-94.28099
C    -0.616000000     2.544000000     0.661000000
H    -1.222000000     3.418000000     0.434000000
C    -0.822000000     1.297000000     0.103000000
H    -1.614000000     1.129000000    -0.623000000
C    -0.120000000     0.143000000     0.540000000
C    -0.500000000    -1.183000000     0.012000000
H     0.253000000    -1.933000000     0.264000000
H    -1.396000000    -1.444000000     0.580000000
H    -0.832000000    -1.164000000    -1.028000000
C     1.019000000     0.328000000     1.377000000
H     1.711000000    -0.450000000     1.691000000
C     1.312000000     1.624000000     1.868000000
H     2.151000000     1.757000000     2.547000000
C     0.530000000     2.756000000     1.443000000
C     0.838000000     4.090000000     2.076000000
O     1.910000000     4.285000000     2.646000000
O     0.146000000     5.132000000     1.897000000
