17
-92.56152
C     0.102000000     2.737000000     0.355000000
H    -0.338000000     3.718000000     0.197000000
C    -0.571000000     1.570000000    -0.063000000
H    -1.560000000     1.733000000    -0.485000000
C     0.040000000     0.320000000     0.005000000
C    -0.635000000    -0.939000000    -0.490000000
H    -1.577000000    -0.994000000     0.060000000
H    -0.948000000    -0.962000000    -1.536000000
H    -0.053000000    -1.832000000    -0.254000000
C     1.321000000     0.186000000     0.508000000
H     1.774000000    -0.802000000     0.476000000
C     1.956000000     1.278000000     1.027000000
H     2.881000000     1.161000000     1.586000000
C     1.297000000     2.530000000     1.058000000
C     1.895000000     3.671000000     1.816000000
O     2.828000000     3.474000000     2.560000000
O     1.639000000     4.836000000     1.573000000
