17
-81.98205
C    -0.066000000     2.644000000     1.165000000
H    -0.654000000     3.550000000     1.285000000
C    -0.560000000     1.677000000     0.349000000
H    -1.356000000     1.962000000    -0.333000000
C    -0.066000000     0.398000000     0.374000000
C    -0.610000000    -0.644000000    -0.559000000
H    -0.279000000    -0.593000000    -1.598000000
H    -0.333000000    -1.658000000    -0.265000000
H    -1.692000000    -0.502000000    -0.515000000
C     0.997000000     0.146000000     1.225000000
H     1.336000000    -0.887000000     1.199000000
C     1.492000000     1.119000000     2.031000000
H     2.334000000     0.839000000     2.658000000
C     0.926000000     2.408000000     2.017000000
C     1.453000000     3.633000000     2.749000000
O     2.517000000     3.672000000     3.343000000
O     0.868000000     4.666000000     2.728000000
