17
-94.90348
C    -0.158000000     3.124000000     1.290000000
H    -0.852000000     3.954000000     1.182000000
C    -0.378000000     1.863000000     0.661000000
H    -1.270000000     1.713000000     0.058000000
C     0.537000000     0.833000000     0.842000000
C     0.318000000    -0.514000000     0.195000000
H    -0.062000000    -0.276000000    -0.801000000
H     1.277000000    -0.984000000    -0.033000000
H    -0.396000000    -1.116000000     0.761000000
C     1.745000000     1.014000000     1.564000000
H     2.434000000     0.176000000     1.639000000
C     1.997000000     2.281000000     2.124000000
H     2.947000000     2.551000000     2.577000000
C     1.077000000     3.328000000     1.947000000
C     1.446000000     4.679000000     2.503000000
O     2.465000000     4.708000000     3.132000000
O     0.897000000     5.677000000     2.149000000
