17
-87.99366
C    -0.481000000     2.547000000     0.810000000
H    -0.997000000     3.488000000     0.636000000
C    -0.937000000     1.262000000     0.421000000
H    -1.909000000     1.129000000    -0.048000000
C    -0.061000000     0.146000000     0.387000000
C    -0.476000000    -1.164000000    -0.216000000
H    -0.132000000    -2.054000000     0.315000000
H    -1.567000000    -1.185000000    -0.186000000
H    -0.151000000    -1.289000000    -1.251000000
C     1.239000000     0.269000000     0.954000000
H     1.871000000    -0.610000000     0.856000000
C     1.591000000     1.500000000     1.529000000
H     2.535000000     1.548000000     2.066000000
C     0.771000000     2.634000000     1.472000000
C     1.344000000     3.973000000     1.819000000
O     2.421000000     4.172000000     2.297000000
O     0.815000000     4.960000000     1.356000000
