17
-89.05906
C     0.548000000     2.200000000    -0.511000000
H     0.689000000     2.983000000    -1.252000000
C     0.035000000     1.038000000    -1.011000000
H    -0.331000000     0.863000000    -2.019000000
C    -0.204000000     0.032000000    -0.109000000
C    -0.812000000    -1.292000000    -0.567000000
H    -1.142000000    -1.205000000    -1.604000000
H    -0.072000000    -2.058000000    -0.323000000
H    -1.667000000    -1.669000000    -0.002000000
C     0.026000000     0.224000000     1.231000000
H    -0.103000000    -0.553000000     1.980000000
C     0.432000000     1.436000000     1.738000000
H     0.712000000     1.744000000     2.742000000
C     0.851000000     2.385000000     0.805000000
C     1.541000000     3.641000000     1.241000000
O     1.712000000     3.767000000     2.419000000
O     1.897000000     4.457000000     0.431000000
