17
-94.51977
C    -0.027000000    -2.456000000     0.172000000
H     0.551000000    -3.283000000     0.577000000
C     0.421000000    -1.134000000     0.437000000
H     1.333000000    -0.907000000     0.984000000
C    -0.362000000    -0.096000000     0.033000000
C     0.083000000     1.383000000     0.210000000
H     0.681000000     1.741000000    -0.631000000
H    -0.795000000     2.027000000     0.300000000
H     0.660000000     1.425000000     1.136000000
C    -1.546000000    -0.378000000    -0.724000000
H    -2.153000000     0.454000000    -1.071000000
C    -1.880000000    -1.653000000    -1.126000000
H    -2.785000000    -1.798000000    -1.710000000
C    -1.132000000    -2.722000000    -0.659000000
C    -1.609000000    -4.109000000    -1.005000000
O    -2.556000000    -4.349000000    -1.752000000
O    -1.036000000    -5.097000000    -0.585000000
