17
-89.73558
C    -0.636000000     2.430000000     0.593000000
H    -1.398000000     3.205000000     0.621000000
C    -0.872000000     1.162000000     0.023000000
H    -1.867000000     1.005000000    -0.386000000
C    -0.046000000     0.090000000     0.138000000
C    -0.490000000    -1.294000000    -0.289000000
H     0.215000000    -2.127000000    -0.322000000
H    -1.354000000    -1.626000000     0.291000000
H    -0.815000000    -1.109000000    -1.315000000
C     1.114000000     0.228000000     0.818000000
H     1.853000000    -0.556000000     0.959000000
C     1.408000000     1.484000000     1.384000000
H     2.309000000     1.537000000     1.990000000
C     0.530000000     2.601000000     1.303000000
C     0.864000000     3.948000000     1.895000000
O     1.896000000     4.084000000     2.463000000
O     0.177000000     4.935000000     1.662000000
