17
-87.78621
C     0.268000000     2.912000000    -0.448000000
H     0.502000000     3.689000000    -1.171000000
C     0.084000000     1.589000000    -0.782000000
H    -0.063000000     1.301000000    -1.820000000
C    -0.078000000     0.648000000     0.170000000
C    -0.545000000    -0.747000000    -0.173000000
H    -0.745000000    -0.919000000    -1.233000000
H     0.290000000    -1.352000000     0.188000000
H    -1.454000000    -0.924000000     0.405000000
C     0.064000000     1.061000000     1.513000000
H     0.001000000     0.262000000     2.246000000
C     0.033000000     2.373000000     1.852000000
H     0.046000000     2.670000000     2.898000000
C     0.175000000     3.358000000     0.864000000
C    -0.012000000     4.820000000     1.218000000
O    -0.063000000     5.241000000     2.384000000
O    -0.145000000     5.651000000     0.378000000
