17
-89.59567
C     1.108000000     2.468000000    -0.640000000
H     1.387000000     3.287000000    -1.298000000
C     0.541000000     1.279000000    -1.101000000
H     0.380000000     1.164000000    -2.169000000
C     0.241000000     0.166000000    -0.250000000
C    -0.262000000    -1.100000000    -0.839000000
H    -0.116000000    -1.190000000    -1.918000000
H     0.526000000    -1.745000000    -0.445000000
H    -1.234000000    -1.342000000    -0.405000000
C     0.424000000     0.394000000     1.052000000
H     0.198000000    -0.422000000     1.734000000
C     1.092000000     1.505000000     1.557000000
H     1.391000000     1.554000000     2.601000000
C     1.347000000     2.572000000     0.718000000
C     1.997000000     3.875000000     1.221000000
O     2.049000000     4.120000000     2.417000000
O     2.437000000     4.774000000     0.477000000
