17
-89.14416
C     1.325000000     2.094000000    -0.571000000
H     1.674000000     2.884000000    -1.230000000
C     0.566000000     1.019000000    -1.123000000
H     0.384000000     0.784000000    -2.169000000
C     0.050000000     0.070000000    -0.270000000
C    -0.779000000    -1.056000000    -0.852000000
H    -0.278000000    -1.413000000    -1.754000000
H    -0.761000000    -1.865000000    -0.118000000
H    -1.790000000    -0.688000000    -1.036000000
C     0.285000000     0.254000000     1.090000000
H    -0.053000000    -0.542000000     1.748000000
C     0.876000000     1.362000000     1.624000000
H     0.996000000     1.528000000     2.691000000
C     1.516000000     2.268000000     0.783000000
C     2.153000000     3.453000000     1.381000000
O     2.519000000     3.498000000     2.555000000
O     2.477000000     4.357000000     0.679000000
