17
-95.57202
C     1.882000000     2.009000000    -1.361000000
H     2.649000000     2.104000000    -2.126000000
C     1.234000000     0.762000000    -1.215000000
H     1.437000000     0.007000000    -1.971000000
C     0.338000000     0.567000000    -0.207000000
C    -0.467000000    -0.729000000    -0.237000000
H    -1.019000000    -0.927000000     0.685000000
H    -1.182000000    -0.735000000    -1.062000000
H     0.130000000    -1.623000000    -0.428000000
C    -0.039000000     1.667000000     0.563000000
H    -0.890000000     1.559000000     1.231000000
C     0.534000000     2.868000000     0.369000000
H     0.188000000     3.691000000     0.990000000
C     1.531000000     3.090000000    -0.551000000
C     2.204000000     4.565000000    -0.558000000
O     1.599000000     5.525000000    -0.083000000
O     3.251000000     4.613000000    -1.120000000
