17
-94.29151
C     1.206000000     1.935000000    -1.222000000
H     1.859000000     2.249000000    -2.031000000
C     0.693000000     0.628000000    -1.125000000
H     1.162000000    -0.127000000    -1.751000000
C    -0.148000000     0.270000000    -0.108000000
C    -0.562000000    -1.158000000    -0.001000000
H    -1.281000000    -1.241000000     0.816000000
H    -1.123000000    -1.351000000    -0.917000000
H     0.273000000    -1.855000000     0.093000000
C    -0.489000000     1.281000000     0.821000000
H    -1.019000000     0.962000000     1.715000000
C    -0.083000000     2.642000000     0.705000000
H    -0.384000000     3.363000000     1.461000000
C     0.901000000     2.926000000    -0.270000000
C     1.578000000     4.263000000    -0.338000000
O     1.287000000     5.104000000     0.478000000
O     2.423000000     4.516000000    -1.169000000
