17
-97.73740
C     1.640000000     2.424000000    -1.043000000
H     2.333000000     2.760000000    -1.810000000
C     1.182000000     1.083000000    -1.086000000
H     1.425000000     0.335000000    -1.836000000
C     0.349000000     0.681000000    -0.058000000
C    -0.400000000    -0.668000000    -0.160000000
H    -0.979000000    -0.898000000     0.737000000
H    -1.053000000    -0.596000000    -1.032000000
H     0.322000000    -1.428000000    -0.469000000
C     0.002000000     1.548000000     0.957000000
H    -0.706000000     1.263000000     1.731000000
C     0.471000000     2.862000000     0.986000000
H     0.186000000     3.528000000     1.797000000
C     1.289000000     3.353000000    -0.025000000
C     1.793000000     4.804000000    -0.137000000
O     1.391000000     5.537000000     0.779000000
O     2.461000000     5.280000000    -1.027000000
