17
-91.79969
C     1.787000000     1.779000000    -1.515000000
H     2.505000000     1.897000000    -2.323000000
C     1.333000000     0.502000000    -1.134000000
H     1.765000000    -0.401000000    -1.557000000
C     0.256000000     0.328000000    -0.255000000
C    -0.262000000    -1.065000000     0.142000000
H    -0.484000000    -1.731000000    -0.694000000
H     0.363000000    -1.575000000     0.877000000
H    -1.232000000    -0.918000000     0.621000000
C    -0.388000000     1.464000000     0.275000000
H    -1.303000000     1.266000000     0.829000000
C     0.040000000     2.733000000    -0.075000000
H    -0.376000000     3.639000000     0.358000000
C     1.167000000     2.862000000    -0.881000000
C     1.757000000     4.228000000    -1.286000000
O     1.191000000     5.204000000    -0.885000000
O     2.745000000     4.342000000    -1.918000000
