17
-93.44769
C     2.359000000     1.982000000    -1.202000000
H     3.083000000     1.952000000    -2.012000000
C     1.550000000     0.850000000    -0.860000000
H     1.904000000    -0.056000000    -1.345000000
C     0.548000000     0.954000000     0.013000000
C    -0.350000000    -0.242000000     0.321000000
H    -0.707000000    -0.111000000     1.344000000
H    -1.160000000    -0.451000000    -0.381000000
H     0.173000000    -1.200000000     0.345000000
C     0.310000000     2.139000000     0.668000000
H    -0.523000000     2.147000000     1.367000000
C     1.127000000     3.242000000     0.401000000
H     0.887000000     4.156000000     0.939000000
C     2.110000000     3.238000000    -0.582000000
C     3.002000000     4.446000000    -0.803000000
O     3.128000000     5.311000000     0.026000000
O     3.674000000     4.419000000    -1.804000000
