17
-96.86639
C    -0.275000000     2.858000000    -1.259000000
H    -0.225000000     3.325000000    -2.239000000
C    -0.400000000     1.501000000    -1.198000000
H    -0.450000000     0.912000000    -2.110000000
C    -0.481000000     0.814000000     0.043000000
C    -0.634000000    -0.657000000    -0.007000000
H    -0.485000000    -0.963000000     1.031000000
H    -1.611000000    -0.949000000    -0.396000000
H     0.120000000    -1.121000000    -0.647000000
C    -0.268000000     1.512000000     1.188000000
H    -0.192000000     1.036000000     2.162000000
C    -0.221000000     2.917000000     1.088000000
H    -0.294000000     3.511000000     1.996000000
C    -0.248000000     3.606000000    -0.091000000
C    -0.155000000     5.120000000    -0.103000000
O    -0.198000000     5.843000000     0.913000000
O    -0.077000000     5.706000000    -1.180000000
