17
-95.95921
C     1.397000000     1.751000000    -1.973000000
H     2.077000000     1.946000000    -2.798000000
C     0.900000000     0.483000000    -1.699000000
H     1.115000000    -0.392000000    -2.308000000
C     0.153000000     0.255000000    -0.607000000
C    -0.384000000    -1.075000000    -0.275000000
H    -0.382000000    -1.780000000    -1.109000000
H     0.029000000    -1.462000000     0.660000000
H    -1.457000000    -0.979000000    -0.099000000
C    -0.103000000     1.262000000     0.301000000
H    -0.747000000     1.081000000     1.158000000
C     0.329000000     2.595000000     0.108000000
H     0.005000000     3.365000000     0.803000000
C     1.104000000     2.799000000    -1.042000000
C     1.552000000     4.197000000    -1.420000000
O     1.095000000     5.179000000    -0.822000000
O     2.255000000     4.286000000    -2.384000000
