17
-90.09099
C    -0.898000000     2.975000000     0.213000000
H    -1.457000000     3.774000000    -0.266000000
C    -1.045000000     1.635000000    -0.177000000
H    -1.865000000     1.484000000    -0.875000000
C    -0.137000000     0.667000000     0.286000000
C    -0.246000000    -0.765000000    -0.167000000
H     0.091000000    -1.496000000     0.571000000
H    -1.316000000    -0.955000000    -0.279000000
H     0.249000000    -0.995000000    -1.113000000
C     0.832000000     1.048000000     1.165000000
H     1.494000000     0.246000000     1.481000000
C     0.884000000     2.376000000     1.622000000
H     1.505000000     2.686000000     2.459000000
C     0.124000000     3.354000000     1.034000000
C     0.211000000     4.817000000     1.443000000
O     0.769000000     5.114000000     2.460000000
O    -0.093000000     5.710000000     0.693000000
