17
-97.65093
C    -0.283000000     2.933000000    -0.704000000
H    -0.231000000     3.582000000    -1.574000000
C    -0.393000000     1.536000000    -0.929000000
H    -0.574000000     1.165000000    -1.934000000
C    -0.301000000     0.607000000     0.095000000
C    -0.428000000    -0.906000000    -0.102000000
H     0.062000000    -1.404000000     0.736000000
H    -1.478000000    -1.164000000    -0.256000000
H     0.034000000    -1.074000000    -1.077000000
C    -0.121000000     1.126000000     1.399000000
H     0.083000000     0.442000000     2.219000000
C    -0.162000000     2.495000000     1.620000000
H    -0.071000000     2.823000000     2.652000000
C    -0.243000000     3.421000000     0.604000000
C    -0.079000000     4.886000000     0.847000000
O     0.596000000     5.375000000     1.751000000
O    -0.489000000     5.563000000    -0.088000000
