17
-96.77335
C    -0.823000000     2.750000000     0.156000000
H    -1.582000000     3.399000000    -0.273000000
C    -0.926000000     1.390000000    -0.040000000
H    -1.760000000     0.966000000    -0.594000000
C     0.029000000     0.527000000     0.363000000
C    -0.059000000    -0.932000000     0.002000000
H     0.933000000    -1.376000000     0.104000000
H    -0.790000000    -1.474000000     0.607000000
H    -0.362000000    -1.077000000    -1.037000000
C     1.114000000     1.064000000     1.103000000
H     1.838000000     0.463000000     1.649000000
C     1.193000000     2.434000000     1.376000000
H     1.969000000     2.698000000     2.090000000
C     0.261000000     3.282000000     0.838000000
C     0.362000000     4.806000000     1.042000000
O     1.122000000     5.220000000     1.923000000
O    -0.210000000     5.652000000     0.351000000
