17
-92.29818
C    -0.499000000     2.533000000     0.327000000
H    -1.111000000     3.406000000     0.113000000
C    -0.876000000     1.229000000    -0.084000000
H    -1.765000000     0.928000000    -0.632000000
C    -0.016000000     0.217000000     0.222000000
C    -0.490000000    -1.211000000    -0.218000000
H     0.187000000    -1.565000000    -0.998000000
H    -0.437000000    -1.980000000     0.556000000
H    -1.517000000    -1.231000000    -0.590000000
C     1.193000000     0.407000000     0.908000000
H     1.866000000    -0.432000000     1.065000000
C     1.591000000     1.719000000     1.223000000
H     2.539000000     1.786000000     1.751000000
C     0.703000000     2.771000000     1.040000000
C     1.124000000     4.168000000     1.276000000
O     2.314000000     4.357000000     1.143000000
O     0.286000000     5.030000000     1.271000000
