17
-95.77868
C    -0.414000000     2.771000000     0.473000000
H    -0.926000000     3.672000000     0.144000000
C    -0.796000000     1.559000000    -0.009000000
H    -1.546000000     1.509000000    -0.794000000
C    -0.135000000     0.438000000     0.485000000
C    -0.657000000    -0.912000000    -0.061000000
H     0.186000000    -1.491000000    -0.445000000
H    -1.118000000    -1.482000000     0.748000000
H    -1.344000000    -0.721000000    -0.888000000
C     0.878000000     0.531000000     1.338000000
H     1.409000000    -0.359000000     1.667000000
C     1.316000000     1.792000000     1.819000000
H     2.183000000     1.873000000     2.470000000
C     0.679000000     2.966000000     1.379000000
C     1.054000000     4.251000000     1.974000000
O     2.126000000     4.326000000     2.610000000
O     0.478000000     5.236000000     1.506000000
