17
-87.33471
C    -0.023000000     2.386000000     1.867000000
H    -0.515000000     3.355000000     1.871000000
C    -0.551000000     1.573000000     0.891000000
H    -1.285000000     1.988000000     0.205000000
C     0.008000000     0.370000000     0.576000000
C    -0.350000000    -0.405000000    -0.683000000
H    -0.489000000    -1.479000000    -0.545000000
H    -1.310000000     0.024000000    -0.977000000
H     0.448000000    -0.327000000    -1.425000000
C     1.075000000    -0.069000000     1.338000000
H     1.551000000    -1.010000000     1.076000000
C     1.653000000     0.655000000     2.361000000
H     2.508000000     0.231000000     2.882000000
C     1.093000000     1.977000000     2.589000000
C     1.703000000     3.017000000     3.508000000
O     2.674000000     2.734000000     4.080000000
O     1.168000000     4.111000000     3.538000000
