17
-98.73065
C    -0.224000000     2.509000000     1.553000000
H    -0.444000000     3.570000000     1.478000000
C    -0.661000000     1.620000000     0.538000000
H    -1.204000000     2.030000000    -0.310000000
C    -0.335000000     0.255000000     0.631000000
C    -0.712000000    -0.741000000    -0.435000000
H    -1.469000000    -0.513000000    -1.188000000
H     0.224000000    -0.907000000    -0.973000000
H    -1.015000000    -1.689000000     0.014000000
C     0.488000000    -0.143000000     1.617000000
H     0.865000000    -1.160000000     1.541000000
C     1.021000000     0.735000000     2.599000000
H     1.786000000     0.398000000     3.294000000
C     0.641000000     2.077000000     2.562000000
C     1.258000000     3.076000000     3.556000000
O     2.197000000     2.704000000     4.215000000
O     0.786000000     4.232000000     3.700000000
