17
-93.38993
C     0.060000000     2.548000000     2.091000000
H    -0.525000000     3.439000000     2.305000000
C    -0.505000000     1.783000000     1.054000000
H    -1.425000000     2.062000000     0.547000000
C     0.140000000     0.571000000     0.640000000
C    -0.402000000    -0.227000000    -0.453000000
H    -0.408000000    -1.296000000    -0.230000000
H    -1.313000000     0.171000000    -0.905000000
H     0.436000000    -0.072000000    -1.135000000
C     1.385000000     0.244000000     1.204000000
H     1.810000000    -0.692000000     0.852000000
C     1.813000000     0.928000000     2.335000000
H     2.744000000     0.526000000     2.726000000
C     1.217000000     2.125000000     2.751000000
C     1.725000000     2.765000000     4.055000000
O     2.854000000     2.555000000     4.509000000
O     0.955000000     3.529000000     4.663000000
