17
-93.92826
C    -0.321000000     2.452000000     1.703000000
H    -0.788000000     3.384000000     2.009000000
C    -0.784000000     1.838000000     0.577000000
H    -1.436000000     2.428000000    -0.063000000
C    -0.339000000     0.564000000     0.286000000
C    -0.943000000    -0.312000000    -0.823000000
H    -1.938000000     0.114000000    -0.970000000
H    -0.434000000    -0.345000000    -1.789000000
H    -1.074000000    -1.316000000    -0.416000000
C     0.511000000    -0.077000000     1.178000000
H     0.811000000    -1.096000000     0.946000000
C     1.056000000     0.613000000     2.268000000
H     1.755000000     0.154000000     2.962000000
C     0.604000000     1.895000000     2.568000000
C     1.018000000     2.500000000     3.857000000
O     2.023000000     2.171000000     4.442000000
O     0.316000000     3.363000000     4.360000000
