17
-95.67853
C     0.514000000     2.788000000     3.355000000
H    -0.095000000     3.599000000     3.746000000
C     0.076000000     2.275000000     2.158000000
H    -0.849000000     2.576000000     1.674000000
C     0.799000000     1.196000000     1.631000000
C     0.424000000     0.665000000     0.250000000
H    -0.493000000     1.081000000    -0.172000000
H     1.187000000     0.870000000    -0.503000000
H     0.457000000    -0.426000000     0.218000000
C     1.991000000     0.814000000     2.245000000
H     2.646000000     0.107000000     1.742000000
C     2.367000000     1.264000000     3.497000000
H     3.249000000     0.888000000     4.008000000
C     1.613000000     2.288000000     4.093000000
C     1.891000000     2.831000000     5.466000000
O     2.952000000     2.435000000     6.022000000
O     1.158000000     3.567000000     6.009000000
