17
-94.66123
C     0.028000000     1.750000000     1.625000000
H    -0.158000000     2.812000000     1.762000000
C    -0.453000000     1.141000000     0.481000000
H    -1.146000000     1.715000000    -0.128000000
C    -0.063000000    -0.134000000     0.132000000
C    -0.699000000    -0.888000000    -1.030000000
H    -1.520000000    -1.524000000    -0.692000000
H    -1.132000000    -0.214000000    -1.771000000
H     0.086000000    -1.485000000    -1.499000000
C     0.956000000    -0.811000000     0.852000000
H     1.311000000    -1.778000000     0.508000000
C     1.453000000    -0.211000000     2.018000000
H     2.154000000    -0.761000000     2.641000000
C     1.031000000     1.085000000     2.395000000
C     1.587000000     1.819000000     3.570000000
O     2.560000000     1.431000000     4.202000000
O     1.064000000     2.824000000     3.951000000
