17
-95.38623
C     0.110000000     2.089000000     1.272000000
H    -0.352000000     3.050000000     1.484000000
C    -0.511000000     1.244000000     0.357000000
H    -1.353000000     1.591000000    -0.236000000
C    -0.094000000    -0.071000000     0.078000000
C    -0.714000000    -0.827000000    -1.017000000
H    -0.415000000    -0.652000000    -2.052000000
H    -0.395000000    -1.866000000    -0.911000000
H    -1.793000000    -0.927000000    -0.878000000
C     1.096000000    -0.519000000     0.686000000
H     1.563000000    -1.498000000     0.618000000
C     1.813000000     0.418000000     1.593000000
H     2.759000000     0.151000000     2.055000000
C     1.267000000     1.714000000     1.869000000
C     2.018000000     2.674000000     2.806000000
O     3.105000000     2.287000000     3.275000000
O     1.454000000     3.740000000     2.961000000
