17
-88.50084
C     0.622000000     1.996000000     0.991000000
H     0.354000000     3.048000000     0.943000000
C     0.000000000     1.059000000     0.185000000
H    -0.871000000     1.331000000    -0.406000000
C     0.553000000    -0.228000000     0.126000000
C    -0.234000000    -1.123000000    -0.732000000
H     0.123000000    -2.076000000    -0.336000000
H    -1.306000000    -1.137000000    -0.523000000
H     0.086000000    -1.104000000    -1.775000000
C     1.634000000    -0.584000000     0.846000000
H     1.993000000    -1.608000000     0.781000000
C     2.279000000     0.351000000     1.650000000
H     3.262000000     0.189000000     2.084000000
C     1.787000000     1.642000000     1.757000000
C     2.464000000     2.768000000     2.587000000
O     3.547000000     2.635000000     3.042000000
O     1.946000000     3.909000000     2.605000000
