17
-94.50252
C     0.532000000     1.733000000     1.889000000
H     0.360000000     2.753000000     2.223000000
C    -0.243000000     1.221000000     0.830000000
H    -1.044000000     1.805000000     0.386000000
C    -0.004000000    -0.080000000     0.376000000
C    -0.761000000    -0.702000000    -0.738000000
H    -0.756000000    -0.197000000    -1.706000000
H    -0.368000000    -1.715000000    -0.844000000
H    -1.810000000    -0.768000000    -0.444000000
C     0.994000000    -0.785000000     1.025000000
H     1.137000000    -1.808000000     0.689000000
C     1.638000000    -0.338000000     2.101000000
H     2.366000000    -0.972000000     2.600000000
C     1.465000000     0.945000000     2.497000000
C     2.322000000     1.535000000     3.626000000
O     3.173000000     0.866000000     4.216000000
O     2.328000000     2.746000000     3.747000000
