17
-97.65600
C     0.033000000     1.875000000     2.246000000
H    -0.500000000     2.605000000     2.850000000
C    -0.492000000     1.360000000     1.028000000
H    -1.380000000     1.869000000     0.661000000
C     0.066000000     0.316000000     0.360000000
C    -0.666000000    -0.174000000    -0.878000000
H    -0.064000000    -0.642000000    -1.660000000
H    -1.445000000    -0.883000000    -0.587000000
H    -1.170000000     0.686000000    -1.324000000
C     1.209000000    -0.303000000     0.827000000
H     1.571000000    -1.229000000     0.389000000
C     1.819000000     0.235000000     1.963000000
H     2.682000000    -0.296000000     2.356000000
C     1.251000000     1.297000000     2.711000000
C     2.006000000     1.825000000     3.901000000
O     2.736000000     1.052000000     4.531000000
O     1.641000000     2.879000000     4.388000000
