17
-88.09073
C     0.705000000     2.444000000     0.616000000
H     0.550000000     3.518000000     0.559000000
C    -0.152000000     1.580000000    -0.087000000
H    -1.069000000     1.952000000    -0.536000000
C    -0.043000000     0.216000000     0.058000000
C    -0.826000000    -0.816000000    -0.638000000
H    -0.473000000    -0.811000000    -1.672000000
H    -0.760000000    -1.729000000    -0.043000000
H    -1.866000000    -0.498000000    -0.737000000
C     0.938000000    -0.325000000     0.874000000
H     1.154000000    -1.390000000     0.845000000
C     1.669000000     0.578000000     1.691000000
H     2.325000000     0.119000000     2.425000000
C     1.594000000     1.959000000     1.593000000
C     2.608000000     2.808000000     2.316000000
O     3.568000000     2.305000000     2.879000000
O     2.438000000     3.984000000     2.445000000
