17
-94.07915
C    -0.057000000     2.054000000     1.513000000
H    -0.268000000     3.120000000     1.556000000
C    -0.699000000     1.359000000     0.483000000
H    -1.363000000     1.931000000    -0.161000000
C    -0.300000000     0.062000000     0.172000000
C    -0.822000000    -0.776000000    -0.948000000
H    -0.835000000    -1.854000000    -0.773000000
H    -1.888000000    -0.566000000    -1.055000000
H    -0.241000000    -0.622000000    -1.860000000
C     0.702000000    -0.579000000     0.923000000
H     1.061000000    -1.602000000     0.849000000
C     1.286000000     0.137000000     2.031000000
H     1.948000000    -0.418000000     2.690000000
C     1.019000000     1.507000000     2.191000000
C     1.753000000     2.274000000     3.289000000
O     2.601000000     1.689000000     3.964000000
O     1.443000000     3.400000000     3.597000000
