17
-96.79804
C     1.218000000     1.981000000     1.111000000
H     1.134000000     3.038000000     1.353000000
C     0.233000000     1.339000000     0.352000000
H    -0.641000000     1.881000000     0.000000000
C     0.238000000    -0.007000000     0.152000000
C    -0.927000000    -0.645000000    -0.470000000
H    -0.893000000    -1.677000000    -0.824000000
H    -1.780000000    -0.655000000     0.211000000
H    -1.283000000    -0.021000000    -1.293000000
C     1.289000000    -0.780000000     0.663000000
H     1.276000000    -1.849000000     0.467000000
C     2.276000000    -0.187000000     1.434000000
H     3.168000000    -0.728000000     1.738000000
C     2.300000000     1.156000000     1.596000000
C     3.351000000     1.826000000     2.458000000
O     4.540000000     1.503000000     2.252000000
O     3.058000000     2.806000000     3.133000000
