17
-93.48058
C     0.782000000     1.854000000     1.160000000
H     0.768000000     2.931000000     1.310000000
C    -0.169000000     1.323000000     0.327000000
H    -0.955000000     1.874000000    -0.185000000
C    -0.126000000    -0.016000000     0.002000000
C    -1.177000000    -0.558000000    -0.912000000
H    -2.165000000    -0.351000000    -0.496000000
H    -0.924000000    -0.196000000    -1.911000000
H    -1.179000000    -1.649000000    -0.956000000
C     0.791000000    -0.850000000     0.617000000
H     0.910000000    -1.892000000     0.333000000
C     1.742000000    -0.344000000     1.508000000
H     2.495000000    -1.016000000     1.912000000
C     1.773000000     1.032000000     1.719000000
C     2.634000000     1.585000000     2.789000000
O     3.379000000     0.883000000     3.428000000
O     2.752000000     2.809000000     2.941000000
