17
-97.52107
C     0.846000000     2.634000000     0.401000000
H     0.581000000     3.684000000     0.297000000
C    -0.034000000     1.677000000     0.001000000
H    -1.031000000     1.932000000    -0.350000000
C     0.243000000     0.342000000     0.084000000
C    -0.694000000    -0.654000000    -0.395000000
H    -0.652000000    -0.674000000    -1.486000000
H    -0.317000000    -1.629000000    -0.079000000
H    -1.694000000    -0.536000000     0.027000000
C     1.460000000    -0.053000000     0.625000000
H     1.707000000    -1.110000000     0.573000000
C     2.371000000     0.881000000     1.069000000
H     3.314000000     0.528000000     1.479000000
C     2.073000000     2.274000000     0.944000000
C     3.038000000     3.298000000     1.521000000
O     4.069000000     3.014000000     2.175000000
O     2.773000000     4.495000000     1.374000000
