17
-92.07614
C     1.137000000     2.046000000     0.479000000
H     1.083000000     3.128000000     0.386000000
C     0.096000000     1.305000000    -0.076000000
H    -0.747000000     1.845000000    -0.498000000
C     0.116000000    -0.102000000    -0.187000000
C    -0.905000000    -0.870000000    -0.981000000
H    -1.926000000    -0.503000000    -0.861000000
H    -0.632000000    -0.803000000    -2.036000000
H    -0.928000000    -1.928000000    -0.711000000
C     1.224000000    -0.744000000     0.355000000
H     1.239000000    -1.830000000     0.306000000
C     2.294000000    -0.095000000     0.951000000
H     3.114000000    -0.747000000     1.240000000
C     2.321000000     1.330000000     0.969000000
C     3.570000000     1.996000000     1.503000000
O     4.484000000     1.418000000     1.982000000
O     3.644000000     3.205000000     1.344000000
