17
-93.79775
C     1.370000000     1.800000000     1.179000000
H     1.444000000     2.870000000     1.356000000
C     0.444000000     1.401000000     0.270000000
H    -0.263000000     2.082000000    -0.197000000
C     0.271000000     0.086000000    -0.012000000
C    -0.935000000    -0.417000000    -0.838000000
H    -1.242000000    -1.426000000    -0.554000000
H    -1.784000000     0.261000000    -0.724000000
H    -0.613000000    -0.460000000    -1.881000000
C     1.124000000    -0.871000000     0.513000000
H     0.977000000    -1.907000000     0.221000000
C     2.190000000    -0.493000000     1.367000000
H     2.828000000    -1.285000000     1.753000000
C     2.170000000     0.846000000     1.807000000
C     3.195000000     1.331000000     2.819000000
O     3.833000000     0.584000000     3.521000000
O     3.330000000     2.520000000     2.853000000
