17
-91.63646
C     2.453000000    -0.298000000     1.211000000
H     3.538000000    -0.337000000     1.157000000
C     1.590000000     0.184000000     0.261000000
H     2.020000000     0.653000000    -0.620000000
C     0.195000000     0.082000000     0.376000000
C    -0.661000000     0.562000000    -0.821000000
H    -1.325000000     1.314000000    -0.390000000
H     0.032000000     0.872000000    -1.607000000
H    -1.300000000    -0.267000000    -1.132000000
C    -0.297000000    -0.354000000     1.605000000
H    -1.340000000    -0.508000000     1.868000000
C     0.580000000    -0.808000000     2.598000000
H     0.196000000    -1.115000000     3.567000000
C     1.950000000    -0.797000000     2.391000000
C     2.889000000    -1.443000000     3.409000000
O     2.469000000    -1.875000000     4.431000000
O     4.066000000    -1.620000000     3.164000000
