17
-91.09037
C     1.281000000     1.781000000    -0.051000000
H     1.293000000     2.820000000    -0.370000000
C     0.173000000     1.105000000    -0.468000000
H    -0.557000000     1.576000000    -1.121000000
C     0.026000000    -0.279000000    -0.265000000
C    -1.247000000    -0.902000000    -0.731000000
H    -1.374000000    -1.790000000    -0.108000000
H    -2.127000000    -0.304000000    -0.486000000
H    -1.274000000    -1.112000000    -1.802000000
C     1.053000000    -0.930000000     0.522000000
H     0.995000000    -2.009000000     0.644000000
C     2.246000000    -0.231000000     0.846000000
H     3.112000000    -0.768000000     1.226000000
C     2.350000000     1.145000000     0.602000000
C     3.626000000     1.858000000     0.724000000
O     4.544000000     1.256000000     1.209000000
O     3.747000000     3.067000000     0.503000000
