17
-88.41880
C     0.949000000     2.307000000     0.751000000
H     0.884000000     3.377000000     0.574000000
C    -0.021000000     1.588000000     0.068000000
H    -0.824000000     2.069000000    -0.484000000
C     0.020000000     0.196000000     0.108000000
C    -1.014000000    -0.584000000    -0.633000000
H    -1.085000000    -0.569000000    -1.723000000
H    -0.917000000    -1.629000000    -0.329000000
H    -1.968000000    -0.136000000    -0.348000000
C     1.073000000    -0.456000000     0.836000000
H     1.190000000    -1.524000000     0.674000000
C     2.030000000     0.303000000     1.521000000
H     2.887000000    -0.224000000     1.933000000
C     2.072000000     1.716000000     1.389000000
C     3.220000000     2.586000000     1.901000000
O     4.151000000     2.039000000     2.507000000
O     3.208000000     3.767000000     1.914000000
