17
-101.59815
C     0.803000000    -3.044000000    -0.989000000
H     1.396000000    -3.896000000    -0.665000000
C     0.423000000    -2.052000000    -0.092000000
H     0.773000000    -1.957000000     0.933000000
C    -0.359000000    -0.984000000    -0.549000000
C    -0.483000000     0.207000000     0.349000000
H    -0.943000000    -0.062000000     1.302000000
H     0.524000000     0.529000000     0.623000000
H    -1.052000000     1.020000000    -0.106000000
C    -0.985000000    -0.989000000    -1.771000000
H    -1.743000000    -0.279000000    -2.091000000
C    -0.674000000    -2.071000000    -2.630000000
H    -1.156000000    -2.074000000    -3.604000000
C     0.205000000    -3.098000000    -2.292000000
C     0.474000000    -4.308000000    -3.133000000
O    -0.334000000    -4.587000000    -4.011000000
O     1.393000000    -5.064000000    -2.772000000
