17
-99.00314
C     0.747000000     2.509000000     0.621000000
H     0.890000000     3.515000000     0.236000000
C     0.020000000     1.583000000    -0.161000000
H    -0.575000000     1.907000000    -1.011000000
C    -0.078000000     0.273000000     0.246000000
C    -1.029000000    -0.718000000    -0.461000000
H    -0.690000000    -1.756000000    -0.463000000
H    -2.013000000    -0.697000000     0.011000000
H    -1.168000000    -0.407000000    -1.498000000
C     0.487000000    -0.130000000     1.457000000
H     0.351000000    -1.162000000     1.769000000
C     1.321000000     0.731000000     2.192000000
H     1.926000000     0.361000000     3.016000000
C     1.474000000     2.067000000     1.724000000
C     2.506000000     2.986000000     2.210000000
O     2.725000000     2.901000000     3.433000000
O     3.025000000     3.835000000     1.467000000
