17
-89.53287
C     1.719000000     1.388000000     0.119000000
H     1.941000000     2.375000000    -0.279000000
C     0.568000000     0.812000000    -0.280000000
H     0.043000000     1.478000000    -0.961000000
C     0.179000000    -0.391000000     0.198000000
C    -1.095000000    -0.961000000    -0.390000000
H    -1.176000000    -2.046000000    -0.297000000
H    -1.967000000    -0.555000000     0.128000000
H    -1.189000000    -0.673000000    -1.439000000
C     1.021000000    -1.138000000     1.008000000
H     0.651000000    -2.105000000     1.338000000
C     2.214000000    -0.592000000     1.468000000
H     2.811000000    -1.299000000     2.038000000
C     2.601000000     0.688000000     1.033000000
C     3.774000000     1.420000000     1.633000000
O     4.346000000     0.800000000     2.519000000
O     4.052000000     2.588000000     1.459000000
