17
-92.71938
C     0.658000000     2.234000000     0.769000000
H     0.530000000     3.303000000     0.617000000
C     0.104000000     1.377000000    -0.216000000
H    -0.307000000     1.835000000    -1.111000000
C    -0.037000000     0.034000000     0.074000000
C    -0.800000000    -0.869000000    -0.823000000
H    -1.230000000    -1.683000000    -0.236000000
H    -1.563000000    -0.362000000    -1.416000000
H    -0.046000000    -1.304000000    -1.483000000
C     0.573000000    -0.464000000     1.270000000
H     0.457000000    -1.526000000     1.474000000
C     1.219000000     0.343000000     2.224000000
H     1.690000000    -0.124000000     3.085000000
C     1.342000000     1.718000000     1.938000000
C     2.280000000     2.575000000     2.767000000
O     2.726000000     2.235000000     3.851000000
O     2.723000000     3.567000000     2.256000000
