17
-98.09828
C     0.879000000     2.733000000     0.194000000
H     0.875000000     3.654000000    -0.384000000
C     0.020000000     1.733000000    -0.219000000
H    -0.635000000     1.998000000    -1.045000000
C    -0.180000000     0.578000000     0.563000000
C    -1.219000000    -0.414000000     0.102000000
H    -1.449000000    -0.481000000    -0.964000000
H    -0.999000000    -1.440000000     0.404000000
H    -2.092000000    -0.137000000     0.697000000
C     0.694000000     0.346000000     1.609000000
H     0.627000000    -0.567000000     2.196000000
C     1.634000000     1.295000000     1.974000000
H     2.191000000     1.135000000     2.893000000
C     1.642000000     2.578000000     1.332000000
C     2.589000000     3.665000000     1.744000000
O     3.161000000     3.614000000     2.843000000
O     2.737000000     4.656000000     1.033000000
