17
-87.59860
C     0.922000000     2.812000000    -0.019000000
H     0.589000000     3.841000000    -0.136000000
C     0.075000000     1.690000000    -0.305000000
H    -0.879000000     1.855000000    -0.798000000
C     0.487000000     0.392000000    -0.038000000
C    -0.402000000    -0.721000000    -0.412000000
H    -1.428000000    -0.351000000    -0.364000000
H    -0.377000000    -1.189000000    -1.399000000
H    -0.255000000    -1.524000000     0.313000000
C     1.710000000     0.229000000     0.573000000
H     2.034000000    -0.743000000     0.935000000
C     2.624000000     1.277000000     0.651000000
H     3.604000000     1.168000000     1.109000000
C     2.249000000     2.647000000     0.486000000
C     3.159000000     3.793000000     0.621000000
O     4.259000000     3.755000000     1.147000000
O     2.842000000     4.881000000     0.189000000
