17
-90.45139
C     0.888000000     0.412000000     2.239000000
H     0.764000000     0.728000000     3.272000000
C    -0.275000000     0.141000000     1.425000000
H    -1.277000000    -0.059000000     1.796000000
C    -0.118000000    -0.055000000     0.030000000
C    -1.331000000    -0.277000000    -0.771000000
H    -1.771000000     0.685000000    -1.040000000
H    -1.001000000    -0.699000000    -1.723000000
H    -2.047000000    -0.931000000    -0.270000000
C     1.154000000     0.078000000    -0.582000000
H     1.173000000     0.019000000    -1.668000000
C     2.261000000     0.295000000     0.267000000
H     3.283000000     0.386000000    -0.092000000
C     2.138000000     0.494000000     1.671000000
C     3.315000000     0.846000000     2.543000000
O     4.373000000     1.130000000     2.010000000
O     3.171000000     1.178000000     3.684000000
