17
-97.58607
C     1.735000000     2.607000000    -0.073000000
H     1.814000000     3.683000000     0.060000000
C     0.527000000     1.970000000    -0.323000000
H    -0.346000000     2.592000000    -0.509000000
C     0.452000000     0.569000000    -0.259000000
C    -0.839000000    -0.259000000    -0.503000000
H    -1.538000000    -0.075000000     0.315000000
H    -1.272000000     0.018000000    -1.466000000
H    -0.642000000    -1.333000000    -0.531000000
C     1.612000000    -0.178000000     0.022000000
H     1.602000000    -1.262000000    -0.064000000
C     2.825000000     0.442000000     0.345000000
H     3.672000000    -0.180000000     0.626000000
C     2.884000000     1.832000000     0.250000000
C     4.133000000     2.547000000     0.701000000
O     5.102000000     1.935000000     0.972000000
O     4.050000000     3.771000000     0.944000000
