17
-92.63924
C     1.310000000     2.439000000    -0.687000000
H     1.102000000     3.449000000    -1.031000000
C     0.108000000     1.634000000    -0.654000000
H    -0.867000000     2.008000000    -0.954000000
C     0.256000000     0.307000000    -0.306000000
C    -0.975000000    -0.512000000    -0.275000000
H    -1.357000000    -0.616000000    -1.293000000
H    -0.826000000    -1.529000000     0.094000000
H    -1.760000000    -0.018000000     0.303000000
C     1.501000000    -0.258000000     0.030000000
H     1.559000000    -1.272000000     0.417000000
C     2.631000000     0.639000000     0.082000000
H     3.608000000     0.216000000     0.303000000
C     2.564000000     1.963000000    -0.337000000
C     3.757000000     2.906000000    -0.253000000
O     4.856000000     2.480000000    -0.022000000
O     3.694000000     4.099000000    -0.528000000
