17
-90.00312
C     2.199000000    -1.521000000     2.112000000
H     2.028000000    -1.920000000     3.109000000
C     1.130000000    -0.940000000     1.523000000
H     0.161000000    -0.904000000     2.015000000
C     1.308000000    -0.388000000     0.224000000
C     0.181000000     0.241000000    -0.450000000
H    -0.514000000     0.591000000     0.316000000
H     0.479000000     1.068000000    -1.098000000
H    -0.415000000    -0.425000000    -1.078000000
C     2.569000000    -0.362000000    -0.369000000
H     2.753000000     0.041000000    -1.362000000
C     3.614000000    -0.964000000     0.317000000
H     4.588000000    -0.996000000    -0.165000000
C     3.440000000    -1.598000000     1.521000000
C     4.476000000    -2.172000000     2.338000000
O     5.619000000    -1.973000000     1.973000000
O     4.282000000    -2.546000000     3.481000000
