17
-91.02765
C     1.124000000     0.025000000     3.246000000
H     0.937000000     0.355000000     4.264000000
C     0.165000000     0.416000000     2.246000000
H    -0.794000000     0.889000000     2.440000000
C     0.440000000    -0.056000000     0.910000000
C    -0.575000000     0.295000000    -0.152000000
H    -0.401000000     1.313000000    -0.507000000
H    -0.252000000    -0.285000000    -1.019000000
H    -1.642000000     0.157000000     0.035000000
C     1.606000000    -0.723000000     0.614000000
H     1.796000000    -0.959000000    -0.429000000
C     2.534000000    -1.048000000     1.609000000
H     3.440000000    -1.582000000     1.332000000
C     2.290000000    -0.683000000     2.920000000
C     3.278000000    -1.164000000     4.015000000
O     4.382000000    -1.418000000     3.643000000
O     3.038000000    -0.868000000     5.157000000
