17
-95.36275
C     0.624000000    -3.334000000    -1.254000000
H     1.071000000    -4.284000000    -0.973000000
C     0.695000000    -2.235000000    -0.412000000
H     1.377000000    -2.294000000     0.431000000
C     0.126000000    -1.020000000    -0.741000000
C     0.428000000     0.202000000     0.044000000
H     0.475000000    -0.089000000     1.096000000
H     1.356000000     0.694000000    -0.253000000
H    -0.381000000     0.932000000     0.109000000
C    -0.615000000    -0.931000000    -1.865000000
H    -1.128000000     0.012000000    -2.032000000
C    -0.905000000    -2.075000000    -2.614000000
H    -1.657000000    -1.978000000    -3.393000000
C    -0.275000000    -3.278000000    -2.324000000
C    -0.547000000    -4.506000000    -3.075000000
O    -1.164000000    -4.445000000    -4.146000000
O    -0.303000000    -5.559000000    -2.525000000
