17
-98.58621
C     1.378000000     0.390000000     1.973000000
H     1.480000000     1.017000000     2.855000000
C     0.149000000     0.472000000     1.239000000
H    -0.690000000     1.035000000     1.642000000
C     0.076000000    -0.278000000     0.050000000
C    -1.270000000    -0.382000000    -0.647000000
H    -1.704000000    -1.358000000    -0.420000000
H    -1.896000000     0.466000000    -0.362000000
H    -1.109000000    -0.483000000    -1.723000000
C     1.167000000    -0.924000000    -0.480000000
H     1.021000000    -1.250000000    -1.506000000
C     2.406000000    -0.840000000     0.127000000
H     3.270000000    -1.346000000    -0.296000000
C     2.470000000    -0.286000000     1.438000000
C     3.735000000    -0.417000000     2.279000000
O     4.651000000    -1.166000000     1.906000000
O     3.863000000     0.223000000     3.327000000
