17
-79.39507
C     3.280000000    -1.032000000     2.117000000
H     3.603000000    -1.274000000     3.126000000
C     1.956000000    -0.560000000     2.030000000
H     1.309000000    -0.492000000     2.900000000
C     1.431000000    -0.186000000     0.782000000
C    -0.007000000     0.280000000     0.581000000
H    -0.132000000     1.247000000     1.073000000
H    -0.260000000     0.268000000    -0.481000000
H    -0.634000000    -0.427000000     1.128000000
C     2.251000000    -0.167000000    -0.390000000
H     1.695000000     0.194000000    -1.251000000
C     3.554000000    -0.609000000    -0.282000000
H     4.102000000    -0.660000000    -1.220000000
C     4.090000000    -1.171000000     0.911000000
C     5.436000000    -1.592000000     1.019000000
O     6.220000000    -1.355000000     0.132000000
O     5.928000000    -2.190000000     1.939000000
