17
-101.80350
C     2.218000000    -0.882000000     1.719000000
H     2.318000000    -1.186000000     2.758000000
C     0.910000000    -0.633000000     1.215000000
H     0.111000000    -0.665000000     1.950000000
C     0.685000000    -0.373000000    -0.164000000
C    -0.707000000    -0.162000000    -0.647000000
H    -0.556000000     0.176000000    -1.674000000
H    -1.187000000    -1.131000000    -0.800000000
H    -1.326000000     0.462000000     0.002000000
C     1.815000000    -0.369000000    -0.970000000
H     1.628000000    -0.188000000    -2.025000000
C     3.073000000    -0.692000000    -0.509000000
H     3.910000000    -0.769000000    -1.198000000
C     3.337000000    -0.919000000     0.838000000
C     4.698000000    -1.252000000     1.417000000
O     5.620000000    -1.399000000     0.599000000
O     4.823000000    -1.217000000     2.652000000
