17
-96.12236
C     1.401000000    -0.109000000     2.234000000
H     1.461000000     0.002000000     3.314000000
C     0.190000000     0.016000000     1.583000000
H    -0.716000000     0.261000000     2.132000000
C     0.103000000    -0.157000000     0.156000000
C    -1.198000000    -0.122000000    -0.525000000
H    -1.397000000    -0.991000000    -1.157000000
H    -1.976000000    -0.098000000     0.241000000
H    -1.312000000     0.807000000    -1.087000000
C     1.271000000    -0.427000000    -0.548000000
H     1.206000000    -0.617000000    -1.616000000
C     2.454000000    -0.646000000     0.126000000
H     3.321000000    -0.858000000    -0.494000000
C     2.580000000    -0.373000000     1.495000000
C     3.967000000    -0.547000000     2.076000000
O     4.860000000    -0.910000000     1.347000000
O     4.231000000    -0.262000000     3.214000000
