17
-95.71508
C     0.155000000    -3.515000000    -0.768000000
H     0.733000000    -4.418000000    -0.588000000
C     0.360000000    -2.231000000    -0.118000000
H     1.200000000    -2.017000000     0.538000000
C    -0.395000000    -1.140000000    -0.557000000
C    -0.115000000     0.215000000    -0.011000000
H    -0.509000000     1.023000000    -0.631000000
H    -0.490000000     0.196000000     1.014000000
H     0.952000000     0.384000000     0.146000000
C    -1.425000000    -1.299000000    -1.446000000
H    -1.953000000    -0.428000000    -1.825000000
C    -1.649000000    -2.538000000    -2.076000000
H    -2.462000000    -2.670000000    -2.784000000
C    -0.921000000    -3.647000000    -1.614000000
C    -1.271000000    -5.013000000    -2.206000000
O    -1.957000000    -5.000000000    -3.218000000
O    -0.811000000    -6.071000000    -1.813000000
