17
-101.20055
C     1.578000000    -0.847000000     2.030000000
H     1.529000000    -1.024000000     3.101000000
C     0.375000000    -0.494000000     1.405000000
H    -0.541000000    -0.411000000     1.983000000
C     0.348000000    -0.153000000     0.054000000
C    -0.903000000     0.212000000    -0.662000000
H    -1.199000000     1.260000000    -0.735000000
H    -0.849000000    -0.198000000    -1.672000000
H    -1.681000000    -0.326000000    -0.115000000
C     1.536000000    -0.189000000    -0.711000000
H     1.545000000     0.128000000    -1.750000000
C     2.754000000    -0.599000000    -0.084000000
H     3.658000000    -0.670000000    -0.682000000
C     2.800000000    -0.884000000     1.317000000
C     4.091000000    -1.230000000     2.047000000
O     5.166000000    -1.120000000     1.457000000
O     4.070000000    -1.479000000     3.257000000
