17
-95.41766
C     1.737000000    -0.972000000     2.219000000
H     1.816000000    -1.174000000     3.284000000
C     0.522000000    -0.525000000     1.770000000
H    -0.331000000    -0.501000000     2.444000000
C     0.329000000    -0.329000000     0.377000000
C    -1.032000000     0.014000000    -0.172000000
H    -0.969000000     0.639000000    -1.066000000
H    -1.527000000    -0.919000000    -0.451000000
H    -1.653000000     0.622000000     0.489000000
C     1.404000000    -0.454000000    -0.539000000
H     1.321000000    -0.466000000    -1.623000000
C     2.617000000    -0.944000000    -0.086000000
H     3.286000000    -1.327000000    -0.852000000
C     2.757000000    -1.278000000     1.277000000
C     3.994000000    -1.979000000     1.768000000
O     4.752000000    -2.393000000     0.920000000
O     4.287000000    -2.021000000     2.962000000
