17
-94.02609
C     1.775000000    -1.039000000     1.850000000
H     1.920000000    -1.287000000     2.899000000
C     0.552000000    -0.470000000     1.447000000
H    -0.099000000    -0.186000000     2.270000000
C     0.280000000    -0.286000000     0.100000000
C    -1.134000000     0.144000000    -0.397000000
H    -1.606000000     0.870000000     0.267000000
H    -1.041000000     0.659000000    -1.355000000
H    -1.868000000    -0.660000000    -0.304000000
C     1.282000000    -0.507000000    -0.845000000
H     1.165000000    -0.454000000    -1.924000000
C     2.461000000    -1.127000000    -0.453000000
H     3.179000000    -1.380000000    -1.229000000
C     2.734000000    -1.381000000     0.908000000
C     4.033000000    -1.916000000     1.321000000
O     4.943000000    -1.764000000     0.548000000
O     4.183000000    -2.172000000     2.522000000
