17
-95.47237
C     1.165000000    -1.094000000     1.928000000
H     1.215000000    -1.161000000     3.012000000
C    -0.013000000    -0.589000000     1.399000000
H    -0.773000000    -0.229000000     2.088000000
C     0.004000000    -0.281000000     0.020000000
C    -1.194000000     0.363000000    -0.693000000
H    -0.892000000     0.829000000    -1.634000000
H    -1.953000000    -0.391000000    -0.909000000
H    -1.534000000     1.200000000    -0.079000000
C     1.135000000    -0.443000000    -0.732000000
H     1.178000000    -0.182000000    -1.786000000
C     2.277000000    -1.006000000    -0.183000000
H     3.146000000    -1.153000000    -0.820000000
C     2.295000000    -1.351000000     1.172000000
C     3.612000000    -1.805000000     1.721000000
O     4.649000000    -1.409000000     1.174000000
O     3.736000000    -2.520000000     2.688000000
