17
-96.53322
C     1.201000000    -1.198000000     1.630000000
H     1.310000000    -1.379000000     2.696000000
C     0.080000000    -0.480000000     1.181000000
H    -0.634000000    -0.199000000     1.951000000
C    -0.109000000    -0.182000000    -0.185000000
C    -1.453000000     0.329000000    -0.629000000
H    -2.291000000    -0.078000000    -0.060000000
H    -1.431000000     1.419000000    -0.684000000
H    -1.510000000    -0.145000000    -1.611000000
C     0.948000000    -0.413000000    -1.113000000
H     0.782000000    -0.078000000    -2.134000000
C     2.093000000    -1.092000000    -0.661000000
H     2.852000000    -1.472000000    -1.341000000
C     2.178000000    -1.550000000     0.644000000
C     3.486000000    -2.119000000     1.103000000
O     4.428000000    -2.204000000     0.327000000
O     3.649000000    -2.439000000     2.314000000
