17
-92.30016
C     1.192000000    -0.347000000     2.860000000
H     1.255000000     0.110000000     3.845000000
C     0.188000000     0.029000000     1.991000000
H    -0.562000000     0.737000000     2.334000000
C     0.262000000    -0.420000000     0.670000000
C    -0.810000000    -0.035000000    -0.303000000
H    -0.849000000    -0.628000000    -1.219000000
H    -1.745000000    -0.252000000     0.218000000
H    -0.748000000     1.046000000    -0.447000000
C     1.413000000    -1.101000000     0.260000000
H     1.471000000    -1.273000000    -0.812000000
C     2.374000000    -1.477000000     1.175000000
H     3.228000000    -2.048000000     0.820000000
C     2.279000000    -1.122000000     2.501000000
C     3.447000000    -1.284000000     3.405000000
O     4.577000000    -1.738000000     3.094000000
O     3.291000000    -0.961000000     4.541000000
