17
-91.54699
C     0.974000000    -1.071000000     2.234000000
H     0.787000000    -1.146000000     3.302000000
C    -0.079000000    -0.530000000     1.459000000
H    -0.978000000    -0.121000000     1.912000000
C     0.041000000    -0.381000000     0.090000000
C    -1.088000000     0.136000000    -0.680000000
H    -0.714000000     0.153000000    -1.706000000
H    -1.932000000    -0.550000000    -0.588000000
H    -1.361000000     1.131000000    -0.322000000
C     1.120000000    -0.929000000    -0.602000000
H     1.129000000    -1.060000000    -1.681000000
C     2.084000000    -1.615000000     0.144000000
H     2.880000000    -2.076000000    -0.436000000
C     2.052000000    -1.646000000     1.523000000
C     3.140000000    -2.412000000     2.310000000
O     4.171000000    -2.831000000     1.769000000
O     3.151000000    -2.468000000     3.533000000
