17
-98.92500
C     1.190000000    -2.101000000     2.293000000
H     0.850000000    -2.557000000     3.220000000
C     0.322000000    -1.269000000     1.568000000
H    -0.667000000    -1.044000000     1.960000000
C     0.667000000    -0.683000000     0.323000000
C    -0.352000000     0.143000000    -0.491000000
H    -1.348000000    -0.305000000    -0.496000000
H    -0.399000000     1.150000000    -0.071000000
H    -0.005000000     0.205000000    -1.525000000
C     1.907000000    -0.944000000    -0.126000000
H     2.213000000    -0.597000000    -1.110000000
C     2.907000000    -1.505000000     0.713000000
H     3.896000000    -1.621000000     0.276000000
C     2.546000000    -2.148000000     1.876000000
C     3.525000000    -2.906000000     2.664000000
O     4.700000000    -2.955000000     2.237000000
O     3.093000000    -3.458000000     3.668000000
