17
-95.57629
C     0.391000000    -2.735000000    -0.471000000
H     0.523000000    -3.731000000    -0.057000000
C     0.529000000    -1.547000000     0.317000000
H     0.864000000    -1.632000000     1.347000000
C     0.292000000    -0.284000000    -0.211000000
C     0.386000000     0.881000000     0.683000000
H     0.095000000     1.829000000     0.227000000
H    -0.292000000     0.787000000     1.534000000
H     1.418000000     1.009000000     1.017000000
C    -0.134000000    -0.174000000    -1.514000000
H    -0.490000000     0.780000000    -1.892000000
C    -0.218000000    -1.343000000    -2.307000000
H    -0.579000000    -1.154000000    -3.315000000
C     0.043000000    -2.631000000    -1.884000000
C    -0.029000000    -3.850000000    -2.768000000
O    -0.476000000    -3.678000000    -3.869000000
O     0.281000000    -5.006000000    -2.432000000
