17
-95.42285
C     1.151000000    -1.587000000     2.173000000
H     0.878000000    -1.789000000     3.205000000
C     0.248000000    -0.868000000     1.429000000
H    -0.745000000    -0.586000000     1.769000000
C     0.502000000    -0.547000000     0.122000000
C    -0.605000000     0.116000000    -0.698000000
H    -1.566000000     0.034000000    -0.187000000
H    -0.380000000     1.183000000    -0.750000000
H    -0.696000000    -0.328000000    -1.692000000
C     1.739000000    -0.867000000    -0.389000000
H     2.015000000    -0.530000000    -1.385000000
C     2.667000000    -1.604000000     0.351000000
H     3.654000000    -1.756000000    -0.079000000
C     2.362000000    -2.077000000     1.618000000
C     3.267000000    -2.979000000     2.351000000
O     4.388000000    -3.324000000     1.918000000
O     2.983000000    -3.461000000     3.451000000
