17
-86.49699
C     1.438000000    -0.706000000     3.029000000
H     1.089000000    -0.876000000     4.045000000
C     0.468000000    -0.565000000     2.023000000
H    -0.529000000    -0.536000000     2.455000000
C     0.828000000    -0.317000000     0.739000000
C    -0.237000000     0.013000000    -0.182000000
H     0.041000000     0.102000000    -1.234000000
H    -1.078000000    -0.683000000    -0.203000000
H    -0.731000000     0.930000000     0.146000000
C     2.170000000    -0.306000000     0.456000000
H     2.450000000     0.060000000    -0.529000000
C     3.186000000    -0.475000000     1.358000000
H     4.211000000    -0.253000000     1.073000000
C     2.824000000    -0.732000000     2.698000000
C     3.877000000    -0.779000000     3.790000000
O     5.015000000    -0.917000000     3.406000000
O     3.681000000    -0.801000000     4.970000000
