17
-92.83011
C     1.297000000    -1.487000000     2.127000000
H     1.276000000    -1.643000000     3.203000000
C     0.309000000    -0.734000000     1.543000000
H    -0.536000000    -0.400000000     2.141000000
C     0.199000000    -0.514000000     0.156000000
C    -0.960000000     0.184000000    -0.519000000
H    -1.706000000     0.596000000     0.164000000
H    -0.567000000     0.973000000    -1.164000000
H    -1.413000000    -0.529000000    -1.211000000
C     1.238000000    -1.013000000    -0.633000000
H     1.290000000    -0.837000000    -1.705000000
C     2.272000000    -1.790000000    -0.083000000
H     3.069000000    -2.078000000    -0.763000000
C     2.323000000    -2.012000000     1.273000000
C     3.520000000    -2.683000000     1.773000000
O     4.313000000    -3.268000000     1.024000000
O     3.704000000    -2.913000000     2.963000000
