17
-96.81741
C     0.658000000    -2.801000000    -0.824000000
H     0.978000000    -3.800000000    -0.539000000
C     0.942000000    -1.690000000    -0.022000000
H     1.506000000    -1.851000000     0.893000000
C     0.514000000    -0.412000000    -0.390000000
C     0.870000000     0.727000000     0.511000000
H     0.355000000     1.622000000     0.157000000
H     0.657000000     0.512000000     1.561000000
H     1.908000000     1.004000000     0.318000000
C    -0.221000000    -0.294000000    -1.506000000
H    -0.746000000     0.633000000    -1.722000000
C    -0.483000000    -1.382000000    -2.356000000
H    -1.050000000    -1.195000000    -3.265000000
C    -0.019000000    -2.666000000    -2.057000000
C    -0.099000000    -3.884000000    -2.892000000
O    -0.676000000    -3.807000000    -3.960000000
O     0.228000000    -4.958000000    -2.425000000
