17
-97.17613
C     1.452000000    -0.267000000     1.975000000
H     1.464000000    -0.251000000     3.061000000
C     0.236000000    -0.100000000     1.314000000
H    -0.658000000     0.072000000     1.908000000
C     0.234000000    -0.127000000    -0.038000000
C    -0.930000000     0.150000000    -0.843000000
H    -0.969000000    -0.525000000    -1.701000000
H    -1.837000000     0.197000000    -0.237000000
H    -0.760000000     1.159000000    -1.224000000
C     1.384000000    -0.445000000    -0.739000000
H     1.446000000    -0.554000000    -1.818000000
C     2.593000000    -0.669000000    -0.115000000
H     3.437000000    -0.901000000    -0.760000000
C     2.652000000    -0.567000000     1.312000000
C     3.997000000    -0.734000000     2.037000000
O     4.970000000    -1.020000000     1.365000000
O     4.100000000    -0.488000000     3.259000000
