17
-97.95236
C     2.318000000    -0.840000000     0.702000000
H     3.327000000    -0.938000000     0.311000000
C     1.392000000    -0.171000000    -0.023000000
H     1.717000000     0.229000000    -0.980000000
C     0.060000000    -0.027000000     0.441000000
C    -0.939000000     0.460000000    -0.517000000
H    -0.735000000     1.459000000    -0.908000000
H    -1.231000000    -0.188000000    -1.346000000
H    -1.809000000     0.422000000     0.141000000
C    -0.207000000    -0.540000000     1.692000000
H    -1.208000000    -0.390000000     2.087000000
C     0.704000000    -1.227000000     2.492000000
H     0.425000000    -1.646000000     3.455000000
C     1.984000000    -1.408000000     1.977000000
C     3.075000000    -2.206000000     2.656000000
O     2.919000000    -2.474000000     3.849000000
O     4.106000000    -2.489000000     2.001000000
