17
-93.84211
C     1.317000000    -0.354000000     2.249000000
H     1.369000000    -0.437000000     3.332000000
C     0.070000000    -0.223000000     1.657000000
H    -0.776000000    -0.019000000     2.309000000
C     0.009000000    -0.107000000     0.256000000
C    -1.260000000     0.143000000    -0.538000000
H    -1.444000000    -0.635000000    -1.282000000
H    -2.121000000     0.290000000     0.118000000
H    -1.066000000     1.044000000    -1.124000000
C     1.212000000    -0.204000000    -0.514000000
H     1.147000000    -0.067000000    -1.591000000
C     2.442000000    -0.427000000     0.156000000
H     3.253000000    -0.645000000    -0.535000000
C     2.522000000    -0.375000000     1.541000000
C     3.810000000    -0.715000000     2.285000000
O     4.800000000    -1.131000000     1.693000000
O     3.940000000    -0.399000000     3.437000000
