17
-95.76719
C     1.467000000    -0.321000000     2.211000000
H     1.556000000    -0.253000000     3.292000000
C     0.230000000    -0.115000000     1.635000000
H    -0.654000000     0.050000000     2.245000000
C     0.086000000    -0.049000000     0.227000000
C    -1.158000000     0.270000000    -0.541000000
H    -1.597000000    -0.640000000    -0.955000000
H    -2.000000000     0.613000000     0.064000000
H    -0.889000000     1.018000000    -1.289000000
C     1.242000000    -0.177000000    -0.577000000
H     1.165000000    -0.114000000    -1.659000000
C     2.482000000    -0.249000000     0.080000000
H     3.374000000    -0.322000000    -0.538000000
C     2.599000000    -0.332000000     1.477000000
C     3.932000000    -0.312000000     2.135000000
O     4.947000000    -0.414000000     1.504000000
O     3.947000000    -0.308000000     3.362000000
