17
-96.44657
C     1.403000000    -0.098000000     2.621000000
H     1.356000000    -0.129000000     3.706000000
C     0.234000000     0.105000000     1.889000000
H    -0.709000000     0.236000000     2.414000000
C     0.246000000     0.125000000     0.517000000
C    -0.996000000     0.163000000    -0.304000000
H    -1.327000000    -0.844000000    -0.563000000
H    -1.860000000     0.597000000     0.203000000
H    -0.793000000     0.681000000    -1.244000000
C     1.456000000     0.039000000    -0.147000000
H     1.559000000     0.270000000    -1.204000000
C     2.652000000    -0.157000000     0.574000000
H     3.631000000    -0.167000000     0.102000000
C     2.602000000    -0.365000000     1.980000000
C     3.839000000    -0.650000000     2.814000000
O     4.884000000    -0.404000000     2.323000000
O     3.796000000    -1.221000000     3.918000000
