17
-90.69611
C     0.675000000    -2.042000000     2.185000000
H     0.478000000    -2.611000000     3.090000000
C    -0.250000000    -1.082000000     1.720000000
H    -1.174000000    -0.958000000     2.278000000
C     0.041000000    -0.470000000     0.468000000
C    -0.936000000     0.428000000    -0.145000000
H    -0.572000000     1.449000000    -0.273000000
H    -1.420000000    -0.001000000    -1.025000000
H    -1.850000000     0.529000000     0.445000000
C     1.267000000    -0.698000000    -0.093000000
H     1.457000000    -0.370000000    -1.111000000
C     2.198000000    -1.525000000     0.465000000
H     3.171000000    -1.585000000    -0.017000000
C     1.973000000    -2.227000000     1.620000000
C     3.028000000    -2.960000000     2.323000000
O     4.202000000    -3.046000000     1.894000000
O     2.867000000    -3.383000000     3.457000000
