17
-94.95247
C     0.823000000    -1.663000000     2.046000000
H     0.498000000    -2.021000000     3.021000000
C    -0.074000000    -0.939000000     1.283000000
H    -1.044000000    -0.669000000     1.695000000
C     0.350000000    -0.393000000     0.039000000
C    -0.592000000     0.470000000    -0.827000000
H    -0.173000000     1.475000000    -0.908000000
H    -0.888000000    -0.013000000    -1.761000000
H    -1.583000000     0.552000000    -0.375000000
C     1.637000000    -0.613000000    -0.377000000
H     1.927000000    -0.453000000    -1.412000000
C     2.537000000    -1.445000000     0.320000000
H     3.498000000    -1.602000000    -0.163000000
C     2.106000000    -2.014000000     1.544000000
C     3.062000000    -2.676000000     2.416000000
O     4.272000000    -2.564000000     2.166000000
O     2.672000000    -3.251000000     3.426000000
