17
-95.69064
C     0.881000000    -1.965000000    -1.356000000
H     1.599000000    -2.760000000    -1.539000000
C     1.055000000    -0.977000000    -0.401000000
H     1.745000000    -1.087000000     0.431000000
C     0.209000000     0.071000000    -0.336000000
C     0.405000000     1.117000000     0.669000000
H     0.573000000     0.801000000     1.701000000
H     1.274000000     1.695000000     0.347000000
H    -0.470000000     1.767000000     0.605000000
C    -0.901000000     0.134000000    -1.242000000
H    -1.608000000     0.958000000    -1.192000000
C    -1.122000000    -0.851000000    -2.152000000
H    -1.931000000    -0.652000000    -2.850000000
C    -0.186000000    -1.897000000    -2.239000000
C    -0.411000000    -2.936000000    -3.332000000
O    -1.452000000    -2.862000000    -3.963000000
O     0.338000000    -3.893000000    -3.484000000
