17
-94.59132
C     0.852000000    -1.450000000     2.479000000
H     0.776000000    -1.513000000     3.561000000
C    -0.074000000    -0.774000000     1.716000000
H    -0.932000000    -0.327000000     2.210000000
C     0.122000000    -0.487000000     0.336000000
C    -0.964000000     0.228000000    -0.425000000
H    -1.781000000     0.530000000     0.233000000
H    -0.605000000     1.215000000    -0.722000000
H    -1.383000000    -0.326000000    -1.268000000
C     1.197000000    -1.065000000    -0.277000000
H     1.328000000    -1.073000000    -1.356000000
C     2.117000000    -1.837000000     0.434000000
H     2.909000000    -2.306000000    -0.145000000
C     1.915000000    -2.099000000     1.809000000
C     2.827000000    -3.046000000     2.582000000
O     3.706000000    -3.631000000     1.994000000
O     2.437000000    -3.446000000     3.657000000
