17
-84.54632
C     0.937000000    -1.739000000     2.287000000
H     0.748000000    -2.124000000     3.286000000
C     0.115000000    -0.859000000     1.560000000
H    -0.822000000    -0.574000000     2.030000000
C     0.420000000    -0.451000000     0.244000000
C    -0.436000000     0.399000000    -0.563000000
H    -1.454000000     0.355000000    -0.170000000
H    -0.103000000     1.413000000    -0.334000000
H    -0.447000000     0.172000000    -1.631000000
C     1.674000000    -0.837000000    -0.301000000
H     2.044000000    -0.453000000    -1.248000000
C     2.500000000    -1.631000000     0.420000000
H     3.465000000    -1.902000000     0.000000000
C     2.182000000    -2.070000000     1.698000000
C     3.228000000    -2.785000000     2.510000000
O     4.206000000    -3.275000000     2.077000000
O     3.054000000    -3.007000000     3.686000000
