17
-90.02665
C     1.943000000    -2.329000000     0.912000000
H     2.018000000    -3.387000000     1.146000000
C     0.809000000    -1.768000000     0.271000000
H     0.068000000    -2.518000000     0.007000000
C     0.743000000    -0.425000000     0.155000000
C    -0.439000000     0.262000000    -0.484000000
H    -1.348000000    -0.028000000     0.047000000
H    -0.321000000     1.346000000    -0.422000000
H    -0.536000000     0.062000000    -1.554000000
C     1.820000000     0.380000000     0.565000000
H     1.830000000     1.464000000     0.479000000
C     2.922000000    -0.231000000     1.161000000
H     3.718000000     0.415000000     1.521000000
C     3.034000000    -1.598000000     1.302000000
C     4.187000000    -2.220000000     2.082000000
O     5.137000000    -1.498000000     2.269000000
O     4.307000000    -3.371000000     2.316000000
