17
-92.74600
C     0.623000000    -0.964000000     2.075000000
H     0.393000000    -0.946000000     3.137000000
C    -0.167000000    -0.149000000     1.261000000
H    -1.095000000     0.260000000     1.653000000
C     0.187000000    -0.029000000    -0.095000000
C    -0.881000000     0.467000000    -1.093000000
H    -1.853000000     0.100000000    -0.754000000
H    -0.926000000     1.553000000    -1.201000000
H    -0.745000000     0.045000000    -2.090000000
C     1.343000000    -0.617000000    -0.565000000
H     1.545000000    -0.646000000    -1.633000000
C     2.129000000    -1.293000000     0.297000000
H     3.051000000    -1.766000000    -0.030000000
C     1.817000000    -1.497000000     1.617000000
C     2.715000000    -2.415000000     2.499000000
O     3.424000000    -3.279000000     1.958000000
O     2.594000000    -2.416000000     3.678000000
