17
-95.27362
C     0.510000000    -1.045000000     2.330000000
H     0.245000000    -1.469000000     3.295000000
C    -0.397000000    -0.268000000     1.681000000
H    -1.286000000     0.111000000     2.180000000
C    -0.160000000     0.001000000     0.301000000
C    -1.226000000     0.554000000    -0.544000000
H    -0.911000000     1.536000000    -0.903000000
H    -1.503000000     0.022000000    -1.456000000
H    -2.142000000     0.629000000     0.046000000
C     1.046000000    -0.381000000    -0.302000000
H     1.245000000    -0.057000000    -1.320000000
C     1.945000000    -1.274000000     0.353000000
H     2.836000000    -1.713000000    -0.088000000
C     1.666000000    -1.562000000     1.718000000
C     2.675000000    -2.326000000     2.549000000
O     3.579000000    -2.953000000     2.076000000
O     2.548000000    -2.283000000     3.790000000
