17
-93.85582
C     0.397000000    -1.522000000     2.759000000
H     0.217000000    -1.369000000     3.820000000
C    -0.011000000    -0.548000000     1.816000000
H    -0.664000000     0.255000000     2.148000000
C     0.179000000    -0.758000000     0.473000000
C    -0.449000000     0.176000000    -0.539000000
H    -0.605000000     1.167000000    -0.109000000
H     0.197000000     0.142000000    -1.418000000
H    -1.441000000    -0.190000000    -0.812000000
C     0.978000000    -1.841000000     0.043000000
H     1.185000000    -1.962000000    -1.017000000
C     1.525000000    -2.719000000     0.990000000
H     2.178000000    -3.528000000     0.672000000
C     1.270000000    -2.514000000     2.348000000
C     1.713000000    -3.454000000     3.383000000
O     2.599000000    -4.278000000     3.130000000
O     1.455000000    -3.303000000     4.557000000
