17
-92.88367
C     0.770000000    -1.931000000     1.894000000
H     0.498000000    -2.535000000     2.755000000
C    -0.202000000    -1.161000000     1.272000000
H    -1.179000000    -1.214000000     1.747000000
C     0.064000000    -0.322000000     0.239000000
C    -0.973000000     0.537000000    -0.347000000
H    -0.583000000     1.543000000    -0.178000000
H    -0.956000000     0.396000000    -1.430000000
H    -1.942000000     0.335000000     0.114000000
C     1.432000000    -0.185000000    -0.139000000
H     1.698000000     0.611000000    -0.830000000
C     2.390000000    -1.030000000     0.373000000
H     3.431000000    -0.922000000     0.079000000
C     2.044000000    -1.922000000     1.410000000
C     3.161000000    -2.585000000     2.234000000
O     4.294000000    -2.350000000     2.018000000
O     2.734000000    -3.249000000     3.141000000
