17
-90.82693
C     1.033000000    -1.593000000     1.704000000
H     0.858000000    -2.107000000     2.645000000
C     0.050000000    -0.816000000     1.085000000
H    -0.941000000    -0.686000000     1.513000000
C     0.269000000    -0.233000000    -0.155000000
C    -0.858000000     0.428000000    -0.856000000
H    -1.691000000     0.386000000    -0.152000000
H    -0.857000000     1.519000000    -0.841000000
H    -1.169000000    -0.017000000    -1.804000000
C     1.437000000    -0.484000000    -0.815000000
H     1.647000000     0.019000000    -1.756000000
C     2.481000000    -1.290000000    -0.191000000
H     3.411000000    -1.458000000    -0.728000000
C     2.246000000    -1.775000000     1.116000000
C     3.324000000    -2.573000000     1.858000000
O     4.331000000    -2.719000000     1.220000000
O     3.149000000    -2.915000000     2.980000000
