17
-99.87538
C     1.083000000    -1.840000000     2.327000000
H     0.807000000    -2.330000000     3.257000000
C     0.113000000    -1.080000000     1.664000000
H    -0.837000000    -0.801000000     2.114000000
C     0.402000000    -0.617000000     0.428000000
C    -0.728000000     0.000000000    -0.429000000
H    -1.001000000    -0.834000000    -1.080000000
H    -1.563000000     0.438000000     0.122000000
H    -0.412000000     0.789000000    -1.114000000
C     1.661000000    -0.874000000    -0.143000000
H     1.921000000    -0.483000000    -1.123000000
C     2.628000000    -1.628000000     0.534000000
H     3.611000000    -1.750000000     0.086000000
C     2.352000000    -2.101000000     1.797000000
C     3.380000000    -2.915000000     2.540000000
O     4.538000000    -3.057000000     2.089000000
O     3.026000000    -3.527000000     3.544000000
