17
-94.09528
C     0.862000000    -2.731000000     2.038000000
H     0.342000000    -3.583000000     2.469000000
C     0.258000000    -1.512000000     1.632000000
H    -0.805000000    -1.329000000     1.767000000
C     0.976000000    -0.512000000     1.085000000
C     0.394000000     0.677000000     0.397000000
H     0.038000000     0.577000000    -0.631000000
H    -0.510000000     1.057000000     0.878000000
H     1.074000000     1.514000000     0.566000000
C     2.370000000    -0.649000000     0.934000000
H     2.974000000     0.099000000     0.427000000
C     2.992000000    -1.820000000     1.307000000
H     4.072000000    -1.874000000     1.192000000
C     2.239000000    -2.885000000     1.881000000
C     2.959000000    -4.125000000     2.353000000
O     4.178000000    -4.135000000     2.448000000
O     2.369000000    -5.091000000     2.836000000
