17
-82.38856
C     0.619000000    -1.509000000     2.044000000
H     0.278000000    -1.817000000     3.029000000
C    -0.355000000    -0.901000000     1.248000000
H    -1.337000000    -0.715000000     1.676000000
C     0.046000000    -0.446000000    -0.001000000
C    -0.923000000     0.253000000    -0.932000000
H    -1.910000000     0.035000000    -0.519000000
H    -0.856000000     1.332000000    -0.778000000
H    -0.981000000    -0.281000000    -1.882000000
C     1.380000000    -0.549000000    -0.412000000
H     1.743000000    -0.218000000    -1.382000000
C     2.321000000    -1.162000000     0.366000000
H     3.351000000    -1.100000000     0.023000000
C     1.931000000    -1.748000000     1.603000000
C     2.907000000    -2.648000000     2.378000000
O     4.014000000    -2.669000000     1.946000000
O     2.794000000    -2.986000000     3.558000000
