17
-85.42983
C     0.860000000    -2.344000000     2.002000000
H     0.606000000    -2.852000000     2.928000000
C    -0.127000000    -1.581000000     1.400000000
H    -1.173000000    -1.627000000     1.693000000
C     0.155000000    -0.781000000     0.304000000
C    -0.791000000     0.162000000    -0.399000000
H    -0.663000000    -0.082000000    -1.456000000
H    -1.838000000    -0.008000000    -0.142000000
H    -0.444000000     1.186000000    -0.242000000
C     1.468000000    -0.832000000    -0.193000000
H     1.684000000    -0.146000000    -1.008000000
C     2.414000000    -1.681000000     0.349000000
H     3.393000000    -1.703000000    -0.124000000
C     2.089000000    -2.452000000     1.489000000
C     3.151000000    -3.161000000     2.261000000
O     4.260000000    -3.305000000     1.899000000
O     2.826000000    -3.848000000     3.223000000
