17
-93.62469
C     2.879000000    -1.808000000    -0.390000000
H     3.179000000    -2.543000000    -1.132000000
C     1.529000000    -1.414000000    -0.452000000
H     0.864000000    -1.891000000    -1.168000000
C     1.073000000    -0.365000000     0.349000000
C    -0.337000000     0.098000000     0.350000000
H    -0.762000000    -0.277000000     1.284000000
H    -0.365000000     1.189000000     0.383000000
H    -0.895000000    -0.233000000    -0.529000000
C     1.992000000     0.266000000     1.158000000
H     1.666000000     1.076000000     1.806000000
C     3.317000000    -0.177000000     1.237000000
H     3.984000000     0.344000000     1.918000000
C     3.838000000    -1.173000000     0.432000000
C     5.287000000    -1.599000000     0.445000000
O     5.984000000    -1.067000000     1.257000000
O     5.598000000    -2.653000000    -0.042000000
