17
-95.24503
C     1.676000000    -2.411000000     0.267000000
H     1.627000000    -3.480000000     0.072000000
C     0.513000000    -1.681000000     0.009000000
H    -0.425000000    -2.206000000    -0.154000000
C     0.578000000    -0.326000000    -0.122000000
C    -0.650000000     0.420000000    -0.430000000
H    -1.520000000     0.113000000     0.154000000
H    -0.523000000     1.493000000    -0.274000000
H    -0.798000000     0.311000000    -1.507000000
C     1.746000000     0.385000000     0.235000000
H     1.878000000     1.462000000     0.181000000
C     2.875000000    -0.298000000     0.509000000
H     3.751000000     0.318000000     0.692000000
C     2.860000000    -1.707000000     0.578000000
C     4.076000000    -2.505000000     0.965000000
O     5.171000000    -1.999000000     0.881000000
O     3.907000000    -3.610000000     1.481000000
