17
-85.15124
C     1.844000000    -1.555000000    -0.277000000
H     2.072000000    -2.424000000    -0.889000000
C     0.533000000    -1.131000000    -0.487000000
H    -0.079000000    -1.833000000    -1.048000000
C     0.029000000     0.054000000     0.074000000
C    -1.281000000     0.609000000    -0.364000000
H    -1.354000000     0.793000000    -1.438000000
H    -2.080000000     0.011000000     0.078000000
H    -1.403000000     1.645000000    -0.040000000
C     0.945000000     0.862000000     0.752000000
H     0.638000000     1.791000000     1.227000000
C     2.187000000     0.393000000     1.059000000
H     2.808000000     1.031000000     1.682000000
C     2.750000000    -0.779000000     0.463000000
C     4.156000000    -1.300000000     0.692000000
O     4.786000000    -0.876000000     1.567000000
O     4.432000000    -2.336000000     0.118000000
