17
-96.06164
C     1.086000000    -1.629000000     2.280000000
H     1.080000000    -1.911000000     3.330000000
C     0.058000000    -0.943000000     1.652000000
H    -0.801000000    -0.646000000     2.249000000
C     0.159000000    -0.595000000     0.346000000
C    -0.914000000     0.271000000    -0.394000000
H    -1.837000000     0.411000000     0.171000000
H    -0.529000000     1.293000000    -0.391000000
H    -1.111000000     0.003000000    -1.434000000
C     1.359000000    -0.856000000    -0.367000000
H     1.544000000    -0.551000000    -1.393000000
C     2.380000000    -1.617000000     0.225000000
H     3.332000000    -1.779000000    -0.274000000
C     2.244000000    -1.991000000     1.554000000
C     3.291000000    -2.858000000     2.206000000
O     4.350000000    -3.209000000     1.656000000
O     3.203000000    -3.080000000     3.410000000
