17
-91.70683
C     2.280000000    -2.233000000    -0.371000000
H     2.564000000    -3.280000000    -0.443000000
C     1.038000000    -1.759000000    -0.659000000
H     0.315000000    -2.431000000    -1.114000000
C     0.744000000    -0.402000000    -0.524000000
C    -0.557000000     0.098000000    -1.021000000
H    -1.163000000     0.648000000    -0.299000000
H    -0.420000000     0.916000000    -1.730000000
H    -1.068000000    -0.595000000    -1.692000000
C     1.703000000     0.482000000     0.094000000
H     1.344000000     1.482000000     0.324000000
C     2.931000000    -0.045000000     0.406000000
H     3.686000000     0.576000000     0.881000000
C     3.223000000    -1.401000000     0.133000000
C     4.484000000    -1.966000000     0.600000000
O     5.530000000    -1.283000000     0.590000000
O     4.588000000    -3.094000000     1.087000000
