17
-95.54138
C     1.793000000    -1.859000000     2.459000000
H     1.512000000    -2.563000000     3.238000000
C     0.812000000    -1.396000000     1.575000000
H    -0.169000000    -1.862000000     1.611000000
C     1.074000000    -0.317000000     0.784000000
C    -0.045000000     0.082000000    -0.211000000
H    -0.211000000    -0.802000000    -0.830000000
H    -0.997000000     0.368000000     0.241000000
H     0.243000000     0.878000000    -0.901000000
C     2.385000000     0.092000000     0.650000000
H     2.655000000     0.831000000    -0.101000000
C     3.390000000    -0.368000000     1.496000000
H     4.367000000     0.105000000     1.432000000
C     3.081000000    -1.350000000     2.423000000
C     4.205000000    -1.852000000     3.300000000
O     5.335000000    -1.390000000     3.193000000
O     4.054000000    -2.898000000     3.920000000
