17
-97.08350
C    -1.000000000    -2.802000000    -0.244000000
H    -1.026000000    -3.792000000     0.204000000
C    -0.273000000    -1.774000000     0.412000000
H     0.324000000    -1.953000000     1.302000000
C    -0.191000000    -0.503000000    -0.157000000
C     0.562000000     0.580000000     0.600000000
H     1.001000000     0.176000000     1.514000000
H     1.365000000     1.007000000    -0.004000000
H    -0.112000000     1.410000000     0.824000000
C    -0.823000000    -0.234000000    -1.335000000
H    -0.709000000     0.709000000    -1.864000000
C    -1.611000000    -1.231000000    -1.993000000
H    -2.048000000    -1.094000000    -2.979000000
C    -1.733000000    -2.510000000    -1.444000000
C    -2.372000000    -3.643000000    -2.194000000
O    -3.056000000    -3.407000000    -3.148000000
O    -2.127000000    -4.784000000    -1.882000000
