17
-92.43115
C     1.424000000    -1.348000000     1.405000000
H     1.508000000    -1.971000000     2.292000000
C     0.186000000    -0.779000000     1.060000000
H    -0.644000000    -0.881000000     1.756000000
C     0.095000000    -0.059000000    -0.163000000
C    -1.269000000     0.601000000    -0.525000000
H    -1.114000000     1.561000000    -1.022000000
H    -1.859000000     0.025000000    -1.242000000
H    -1.927000000     0.723000000     0.338000000
C     1.178000000     0.153000000    -0.983000000
H     1.054000000     0.768000000    -1.871000000
C     2.397000000    -0.384000000    -0.605000000
H     3.271000000    -0.298000000    -1.245000000
C     2.495000000    -1.126000000     0.560000000
C     3.782000000    -1.821000000     0.950000000
O     4.639000000    -1.823000000     0.149000000
O     4.030000000    -2.395000000     2.040000000
