17
-82.99082
C     0.255000000    -2.233000000    -0.017000000
H     0.832000000    -3.054000000     0.400000000
C     0.578000000    -0.931000000     0.339000000
H     1.305000000    -0.725000000     1.120000000
C    -0.076000000     0.126000000    -0.291000000
C     0.214000000     1.525000000     0.226000000
H    -0.128000000     2.237000000    -0.528000000
H    -0.317000000     1.558000000     1.180000000
H     1.285000000     1.722000000     0.310000000
C    -1.103000000    -0.085000000    -1.217000000
H    -1.651000000     0.697000000    -1.737000000
C    -1.471000000    -1.393000000    -1.472000000
H    -2.157000000    -1.660000000    -2.272000000
C    -0.782000000    -2.448000000    -0.861000000
C    -1.075000000    -3.883000000    -1.293000000
O    -1.687000000    -4.080000000    -2.294000000
O    -0.482000000    -4.716000000    -0.780000000
