17
-97.38433
C     1.224000000    -1.527000000     1.600000000
H     1.213000000    -2.128000000     2.505000000
C     0.098000000    -0.901000000     1.075000000
H    -0.842000000    -0.882000000     1.620000000
C     0.149000000    -0.319000000    -0.173000000
C    -1.040000000     0.464000000    -0.601000000
H    -1.922000000     0.217000000    -0.008000000
H    -0.921000000     1.544000000    -0.491000000
H    -1.300000000     0.274000000    -1.645000000
C     1.315000000    -0.362000000    -0.949000000
H     1.344000000     0.215000000    -1.869000000
C     2.419000000    -0.949000000    -0.392000000
H     3.384000000    -0.918000000    -0.892000000
C     2.401000000    -1.609000000     0.880000000
C     3.575000000    -2.375000000     1.536000000
O     4.638000000    -2.355000000     0.930000000
O     3.576000000    -2.810000000     2.696000000
