17
-94.12172
C     2.526000000    -0.965000000     1.379000000
H     2.901000000    -1.656000000     2.130000000
C     1.130000000    -0.973000000     1.252000000
H     0.450000000    -1.456000000     1.948000000
C     0.586000000    -0.113000000     0.280000000
C    -0.911000000    -0.110000000     0.206000000
H    -1.235000000    -0.454000000    -0.779000000
H    -1.326000000    -0.682000000     1.038000000
H    -1.233000000     0.933000000     0.195000000
C     1.378000000     0.768000000    -0.427000000
H     1.014000000     1.482000000    -1.162000000
C     2.745000000     0.742000000    -0.290000000
H     3.280000000     1.581000000    -0.728000000
C     3.368000000    -0.145000000     0.611000000
C     4.822000000    -0.218000000     0.802000000
O     5.595000000     0.485000000     0.089000000
O     5.246000000    -1.102000000     1.489000000
