17
-93.99510
C     1.788000000    -2.396000000    -0.310000000
H     2.159000000    -3.271000000     0.219000000
C     0.783000000    -1.569000000     0.289000000
H     0.310000000    -1.806000000     1.238000000
C     0.350000000    -0.414000000    -0.357000000
C    -0.760000000     0.436000000     0.245000000
H    -0.335000000     1.333000000     0.701000000
H    -1.367000000     0.780000000    -0.595000000
H    -1.328000000     0.018000000     1.079000000
C     0.962000000     0.045000000    -1.475000000
H     0.801000000     1.053000000    -1.846000000
C     1.989000000    -0.747000000    -2.090000000
H     2.418000000    -0.490000000    -3.055000000
C     2.405000000    -1.951000000    -1.488000000
C     3.496000000    -2.741000000    -2.145000000
O     3.973000000    -2.450000000    -3.236000000
O     3.827000000    -3.825000000    -1.695000000
