17
-92.59051
C     1.238000000    -1.983000000     1.033000000
H     1.343000000    -2.601000000     1.921000000
C     0.122000000    -1.215000000     0.933000000
H    -0.621000000    -1.108000000     1.719000000
C    -0.126000000    -0.453000000    -0.221000000
C    -1.283000000     0.453000000    -0.264000000
H    -2.043000000     0.198000000     0.478000000
H    -0.977000000     1.467000000     0.002000000
H    -1.672000000     0.457000000    -1.285000000
C     0.771000000    -0.412000000    -1.236000000
H     0.662000000     0.189000000    -2.135000000
C     1.908000000    -1.141000000    -1.144000000
H     2.573000000    -1.107000000    -2.002000000
C     2.192000000    -1.903000000    -0.004000000
C     3.442000000    -2.697000000    -0.015000000
O     3.998000000    -3.031000000    -1.059000000
O     3.900000000    -3.047000000     1.032000000
