17
-87.09762
C     2.197000000    -2.220000000     0.748000000
H     2.383000000    -2.842000000     1.620000000
C     0.954000000    -1.490000000     0.755000000
H     0.227000000    -1.620000000     1.552000000
C     0.626000000    -0.656000000    -0.330000000
C    -0.583000000     0.173000000    -0.191000000
H    -1.009000000     0.576000000    -1.112000000
H    -1.299000000    -0.569000000     0.169000000
H    -0.539000000     0.865000000     0.653000000
C     1.432000000    -0.578000000    -1.435000000
H     1.159000000     0.061000000    -2.270000000
C     2.665000000    -1.261000000    -1.457000000
H     3.282000000    -1.239000000    -2.351000000
C     3.036000000    -2.129000000    -0.367000000
C     4.327000000    -2.768000000    -0.332000000
O     4.992000000    -3.068000000    -1.310000000
O     4.737000000    -3.133000000     0.735000000
