17
-86.32877
C     1.245000000    -1.899000000     0.646000000
H     1.398000000    -2.692000000     1.373000000
C     0.171000000    -1.126000000     0.699000000
H    -0.460000000    -1.167000000     1.584000000
C    -0.098000000    -0.181000000    -0.240000000
C    -1.433000000     0.615000000    -0.183000000
H    -1.291000000     1.674000000    -0.410000000
H    -2.174000000     0.236000000    -0.890000000
H    -1.835000000     0.513000000     0.827000000
C     0.734000000     0.054000000    -1.317000000
H     0.615000000     0.827000000    -2.072000000
C     1.864000000    -0.711000000    -1.389000000
H     2.517000000    -0.495000000    -2.231000000
C     2.129000000    -1.703000000    -0.438000000
C     3.353000000    -2.553000000    -0.506000000
O     4.176000000    -2.351000000    -1.337000000
O     3.475000000    -3.557000000     0.165000000
