17
-97.68380
C     1.241000000    -1.991000000     1.177000000
H     1.425000000    -2.566000000     2.081000000
C     0.197000000    -1.061000000     1.148000000
H    -0.320000000    -0.797000000     2.067000000
C    -0.053000000    -0.343000000     0.009000000
C    -1.166000000     0.670000000     0.190000000
H    -0.721000000     1.594000000     0.566000000
H    -1.714000000     0.820000000    -0.742000000
H    -1.870000000     0.344000000     0.958000000
C     0.736000000    -0.484000000    -1.116000000
H     0.573000000     0.227000000    -1.922000000
C     1.807000000    -1.410000000    -1.066000000
H     2.395000000    -1.480000000    -1.978000000
C     2.069000000    -2.158000000     0.085000000
C     3.256000000    -3.098000000     0.185000000
O     4.134000000    -3.147000000    -0.622000000
O     3.203000000    -3.851000000     1.148000000
