17
-92.48134
C     1.910000000    -2.228000000    -0.068000000
H     2.308000000    -3.121000000     0.408000000
C     0.944000000    -1.415000000     0.564000000
H     0.526000000    -1.743000000     1.512000000
C     0.393000000    -0.298000000    -0.055000000
C    -0.815000000     0.381000000     0.480000000
H    -0.462000000     1.153000000     1.168000000
H    -1.335000000     0.883000000    -0.339000000
H    -1.392000000    -0.398000000     0.983000000
C     0.872000000     0.105000000    -1.308000000
H     0.459000000     0.964000000    -1.831000000
C     1.856000000    -0.768000000    -1.979000000
H     2.261000000    -0.396000000    -2.917000000
C     2.428000000    -1.893000000    -1.320000000
C     3.431000000    -2.809000000    -1.955000000
O     4.194000000    -2.292000000    -2.741000000
O     3.578000000    -3.951000000    -1.614000000
