17
-95.44702
C     2.441000000    -0.616000000     0.208000000
H     3.217000000    -0.959000000     0.889000000
C     1.172000000    -0.480000000     0.808000000
H     1.008000000    -0.771000000     1.842000000
C     0.175000000     0.010000000     0.012000000
C    -1.283000000     0.029000000     0.493000000
H    -1.764000000    -0.951000000     0.467000000
H    -1.452000000     0.384000000     1.511000000
H    -1.979000000     0.591000000    -0.133000000
C     0.450000000     0.291000000    -1.279000000
H    -0.251000000     0.671000000    -2.017000000
C     1.681000000     0.170000000    -1.882000000
H     1.783000000     0.443000000    -2.929000000
C     2.707000000    -0.399000000    -1.129000000
C     4.043000000    -0.675000000    -1.759000000
O     4.258000000    -0.347000000    -2.946000000
O     4.964000000    -1.195000000    -1.098000000
