17
-98.71670
C     2.310000000    -0.759000000    -0.460000000
H     3.075000000    -1.506000000    -0.266000000
C     1.043000000    -0.942000000     0.125000000
H     0.882000000    -1.738000000     0.847000000
C     0.006000000    -0.049000000    -0.152000000
C    -1.337000000    -0.329000000     0.440000000
H    -2.185000000    -0.256000000    -0.244000000
H    -1.393000000    -1.343000000     0.842000000
H    -1.369000000     0.325000000     1.313000000
C     0.240000000     1.072000000    -0.918000000
H    -0.581000000     1.772000000    -1.047000000
C     1.481000000     1.265000000    -1.570000000
H     1.614000000     2.122000000    -2.225000000
C     2.556000000     0.438000000    -1.193000000
C     3.966000000     0.817000000    -1.615000000
O     4.210000000     1.830000000    -2.272000000
O     4.911000000     0.008000000    -1.399000000
