17
-88.72034
C     2.214000000    -0.426000000     0.467000000
H     2.953000000    -1.074000000     0.931000000
C     0.835000000    -0.685000000     0.636000000
H     0.427000000    -1.453000000     1.290000000
C    -0.089000000     0.034000000    -0.050000000
C    -1.520000000    -0.074000000     0.369000000
H    -1.851000000    -1.003000000     0.838000000
H    -1.671000000     0.641000000     1.179000000
H    -2.183000000     0.065000000    -0.487000000
C     0.328000000     1.021000000    -0.893000000
H    -0.415000000     1.603000000    -1.433000000
C     1.682000000     1.295000000    -1.140000000
H     1.936000000     2.047000000    -1.883000000
C     2.668000000     0.555000000    -0.422000000
C     4.135000000     0.671000000    -0.613000000
O     4.524000000     1.598000000    -1.336000000
O     4.943000000     0.029000000    -0.061000000
