17
-92.47959
C     2.181000000    -0.752000000    -1.605000000
H     2.990000000    -1.463000000    -1.749000000
C     1.023000000    -1.040000000    -0.941000000
H     0.896000000    -2.056000000    -0.575000000
C     0.099000000    -0.046000000    -0.696000000
C    -0.999000000    -0.226000000     0.299000000
H    -1.255000000    -1.284000000     0.220000000
H    -0.791000000     0.114000000     1.316000000
H    -1.843000000     0.383000000    -0.029000000
C     0.260000000     1.236000000    -1.259000000
H    -0.462000000     2.039000000    -1.135000000
C     1.408000000     1.449000000    -2.063000000
H     1.628000000     2.483000000    -2.317000000
C     2.417000000     0.485000000    -2.206000000
C     3.753000000     0.838000000    -2.892000000
O     3.849000000     1.811000000    -3.598000000
O     4.695000000     0.168000000    -2.642000000
