17
-89.52822
C     2.510000000    -0.819000000    -0.884000000
H     3.254000000    -1.607000000    -0.796000000
C     1.274000000    -0.908000000    -0.208000000
H     1.171000000    -1.783000000     0.429000000
C     0.240000000     0.030000000    -0.490000000
C    -0.973000000    -0.008000000     0.397000000
H    -1.067000000    -0.967000000     0.910000000
H    -0.925000000     0.815000000     1.113000000
H    -1.916000000     0.115000000    -0.139000000
C     0.573000000     1.191000000    -1.137000000
H    -0.134000000     2.014000000    -1.216000000
C     1.862000000     1.428000000    -1.694000000
H     2.159000000     2.390000000    -2.103000000
C     2.839000000     0.376000000    -1.611000000
C     4.119000000     0.506000000    -2.320000000
O     4.270000000     1.423000000    -3.110000000
O     4.980000000    -0.346000000    -2.315000000
