17
-88.02049
C     2.156000000    -0.487000000     0.160000000
H     3.114000000    -0.772000000     0.587000000
C     0.897000000    -0.742000000     0.709000000
H     0.770000000    -1.225000000     1.674000000
C    -0.230000000    -0.252000000     0.019000000
C    -1.546000000    -0.297000000     0.701000000
H    -1.977000000    -1.298000000     0.633000000
H    -1.496000000     0.133000000     1.704000000
H    -2.239000000     0.380000000     0.197000000
C    -0.041000000     0.350000000    -1.239000000
H    -0.909000000     0.864000000    -1.642000000
C     1.175000000     0.650000000    -1.765000000
H     1.294000000     1.145000000    -2.725000000
C     2.301000000     0.130000000    -1.126000000
C     3.677000000     0.344000000    -1.672000000
O     3.778000000     0.754000000    -2.750000000
O     4.519000000     0.207000000    -0.830000000
