17
-96.30912
C     2.563000000    -0.613000000    -0.841000000
H     3.385000000    -1.290000000    -0.622000000
C     1.515000000    -0.707000000     0.054000000
H     1.575000000    -1.516000000     0.779000000
C     0.390000000     0.080000000    -0.187000000
C    -0.855000000    -0.133000000     0.609000000
H    -0.645000000    -0.992000000     1.250000000
H    -1.033000000     0.717000000     1.269000000
H    -1.685000000    -0.328000000    -0.074000000
C     0.337000000     0.917000000    -1.277000000
H    -0.574000000     1.473000000    -1.483000000
C     1.414000000     1.005000000    -2.179000000
H     1.310000000     1.803000000    -2.910000000
C     2.585000000     0.228000000    -1.908000000
C     3.851000000     0.502000000    -2.678000000
O     3.991000000     1.530000000    -3.369000000
O     4.824000000    -0.226000000    -2.452000000
