17
-99.40543
C    -0.507000000    -3.042000000     0.809000000
H    -0.120000000    -3.805000000     1.480000000
C    -0.045000000    -1.718000000     0.728000000
H     0.835000000    -1.448000000     1.306000000
C    -0.589000000    -0.752000000    -0.080000000
C     0.135000000     0.615000000    -0.222000000
H     0.328000000     0.988000000     0.786000000
H     1.131000000     0.429000000    -0.630000000
H    -0.368000000     1.334000000    -0.872000000
C    -1.667000000    -1.104000000    -0.948000000
H    -2.097000000    -0.462000000    -1.713000000
C    -2.147000000    -2.445000000    -0.838000000
H    -2.962000000    -2.676000000    -1.519000000
C    -1.550000000    -3.434000000    -0.038000000
C    -2.034000000    -4.898000000    -0.249000000
O    -3.172000000    -5.123000000    -0.728000000
O    -1.287000000    -5.824000000     0.074000000
