17
-81.70078
C     2.238000000    -0.210000000    -1.740000000
H     3.048000000    -0.914000000    -1.913000000
C     1.285000000    -0.538000000    -0.752000000
H     1.304000000    -1.528000000    -0.303000000
C     0.408000000     0.520000000    -0.377000000
C    -0.643000000     0.077000000     0.598000000
H    -0.815000000    -0.998000000     0.509000000
H    -0.359000000     0.175000000     1.648000000
H    -1.548000000     0.665000000     0.435000000
C     0.430000000     1.772000000    -0.941000000
H    -0.308000000     2.502000000    -0.620000000
C     1.395000000     2.039000000    -1.863000000
H     1.408000000     3.046000000    -2.272000000
C     2.308000000     1.088000000    -2.271000000
C     3.397000000     1.438000000    -3.227000000
O     3.814000000     2.543000000    -3.355000000
O     3.925000000     0.627000000    -3.886000000
