17
-91.00211
C     1.201000000    -0.207000000    -2.451000000
H     1.393000000    -0.746000000    -3.374000000
C     0.305000000    -0.643000000    -1.426000000
H    -0.129000000    -1.611000000    -1.661000000
C     0.005000000     0.193000000    -0.346000000
C    -1.043000000    -0.247000000     0.585000000
H    -0.840000000    -1.223000000     1.030000000
H    -0.964000000     0.528000000     1.350000000
H    -2.090000000    -0.210000000     0.279000000
C     0.788000000     1.248000000    -0.091000000
H     0.755000000     1.733000000     0.881000000
C     1.806000000     1.614000000    -1.003000000
H     2.458000000     2.478000000    -0.902000000
C     1.929000000     0.926000000    -2.213000000
C     2.984000000     1.306000000    -3.197000000
O     3.304000000     2.482000000    -3.242000000
O     3.520000000     0.486000000    -3.953000000
