17
-93.99760
C     3.003000000    -0.052000000    -1.219000000
H     3.941000000    -0.590000000    -1.327000000
C     1.983000000    -0.523000000    -0.458000000
H     2.064000000    -1.425000000     0.144000000
C     0.740000000     0.120000000    -0.398000000
C    -0.360000000    -0.221000000     0.615000000
H    -0.149000000    -1.229000000     0.976000000
H    -0.345000000     0.527000000     1.411000000
H    -1.383000000    -0.193000000     0.233000000
C     0.536000000     1.221000000    -1.138000000
H    -0.463000000     1.650000000    -1.135000000
C     1.533000000     1.679000000    -2.011000000
H     1.397000000     2.603000000    -2.567000000
C     2.840000000     1.191000000    -1.965000000
C     3.976000000     1.828000000    -2.698000000
O     3.864000000     2.973000000    -3.097000000
O     5.070000000     1.278000000    -2.646000000
