17
-93.43022
C     0.891000000     0.243000000    -2.293000000
H     1.017000000    -0.192000000    -3.281000000
C     0.058000000    -0.351000000    -1.393000000
H    -0.336000000    -1.334000000    -1.640000000
C    -0.286000000     0.317000000    -0.186000000
C    -1.351000000    -0.197000000     0.799000000
H    -1.147000000    -1.214000000     1.141000000
H    -1.495000000     0.301000000     1.760000000
H    -2.341000000    -0.220000000     0.341000000
C     0.390000000     1.490000000     0.135000000
H     0.251000000     1.985000000     1.093000000
C     1.328000000     2.054000000    -0.728000000
H     1.752000000     3.021000000    -0.469000000
C     1.560000000     1.468000000    -1.943000000
C     2.530000000     2.141000000    -2.807000000
O     3.085000000     3.203000000    -2.473000000
O     2.751000000     1.737000000    -3.919000000
