17
-90.39147
C     1.818000000    -0.087000000    -2.061000000
H     2.237000000    -0.592000000    -2.928000000
C     0.738000000    -0.615000000    -1.423000000
H     0.260000000    -1.516000000    -1.798000000
C     0.282000000    -0.013000000    -0.253000000
C    -0.972000000    -0.352000000     0.553000000
H    -1.342000000     0.388000000     1.265000000
H    -1.781000000    -0.564000000    -0.150000000
H    -0.876000000    -1.325000000     1.040000000
C     0.925000000     1.180000000     0.162000000
H     0.576000000     1.700000000     1.050000000
C     2.021000000     1.758000000    -0.521000000
H     2.391000000     2.693000000    -0.107000000
C     2.522000000     1.069000000    -1.623000000
C     3.399000000     1.811000000    -2.527000000
O     4.270000000     2.504000000    -2.040000000
O     3.461000000     1.527000000    -3.744000000
