17
-86.13058
C     1.585000000     0.648000000    -2.434000000
H     1.978000000     0.235000000    -3.359000000
C     0.536000000     0.067000000    -1.695000000
H    -0.042000000    -0.739000000    -2.140000000
C     0.204000000     0.497000000    -0.438000000
C    -1.067000000    -0.022000000     0.232000000
H    -1.383000000    -1.043000000     0.004000000
H    -0.930000000    -0.194000000     1.301000000
H    -1.947000000     0.603000000     0.067000000
C     0.916000000     1.585000000     0.139000000
H     0.847000000     1.851000000     1.191000000
C     2.013000000     2.093000000    -0.529000000
H     2.587000000     2.842000000     0.010000000
C     2.376000000     1.579000000    -1.790000000
C     3.531000000     2.263000000    -2.535000000
O     4.148000000     3.165000000    -2.084000000
O     3.886000000     1.807000000    -3.577000000
