17
-94.91160
C     1.482000000     0.924000000    -2.257000000
H     1.863000000     0.789000000    -3.266000000
C     0.686000000     0.009000000    -1.593000000
H     0.559000000    -0.934000000    -2.118000000
C     0.194000000     0.165000000    -0.302000000
C    -0.740000000    -0.805000000     0.370000000
H    -1.479000000    -0.189000000     0.890000000
H    -1.231000000    -1.483000000    -0.331000000
H    -0.070000000    -1.434000000     0.961000000
C     0.681000000     1.272000000     0.448000000
H     0.380000000     1.445000000     1.478000000
C     1.517000000     2.193000000    -0.176000000
H     1.941000000     3.048000000     0.346000000
C     1.902000000     2.056000000    -1.537000000
C     2.934000000     3.015000000    -2.095000000
O     3.246000000     4.019000000    -1.498000000
O     3.360000000     2.843000000    -3.203000000
