17
-96.25168
C     1.650000000     0.682000000    -2.464000000
H     1.650000000     0.337000000    -3.494000000
C     0.903000000    -0.054000000    -1.618000000
H     0.287000000    -0.868000000    -1.992000000
C     0.840000000     0.265000000    -0.266000000
C    -0.115000000    -0.417000000     0.704000000
H    -1.029000000    -0.602000000     0.136000000
H     0.288000000    -1.351000000     1.101000000
H    -0.298000000     0.197000000     1.589000000
C     1.597000000     1.341000000     0.159000000
H     1.653000000     1.671000000     1.193000000
C     2.232000000     2.202000000    -0.776000000
H     2.816000000     3.060000000    -0.451000000
C     2.372000000     1.868000000    -2.130000000
C     3.161000000     2.672000000    -3.136000000
O     3.345000000     3.856000000    -3.002000000
O     3.517000000     2.082000000    -4.159000000
