17
-94.05698
C     0.872000000     0.849000000    -2.660000000
H     0.651000000     0.849000000    -3.724000000
C     0.274000000    -0.034000000    -1.796000000
H    -0.347000000    -0.847000000    -2.162000000
C     0.375000000     0.187000000    -0.399000000
C    -0.447000000    -0.578000000     0.606000000
H    -0.229000000    -1.643000000     0.502000000
H    -0.177000000    -0.297000000     1.626000000
H    -1.508000000    -0.518000000     0.354000000
C     1.369000000     1.035000000     0.037000000
H     1.598000000     1.169000000     1.091000000
C     2.080000000     1.839000000    -0.879000000
H     2.821000000     2.570000000    -0.567000000
C     1.777000000     1.854000000    -2.236000000
C     2.375000000     2.824000000    -3.165000000
O     3.261000000     3.497000000    -2.756000000
O     2.177000000     2.620000000    -4.376000000
