17
-96.66209
C     0.584000000     0.862000000    -2.273000000
H     0.574000000     0.648000000    -3.338000000
C    -0.195000000     0.038000000    -1.437000000
H    -0.645000000    -0.845000000    -1.883000000
C    -0.245000000     0.306000000    -0.103000000
C    -1.045000000    -0.583000000     0.789000000
H    -0.971000000    -1.667000000     0.676000000
H    -0.852000000    -0.299000000     1.825000000
H    -2.116000000    -0.434000000     0.639000000
C     0.518000000     1.350000000     0.448000000
H     0.619000000     1.405000000     1.529000000
C     1.301000000     2.166000000    -0.337000000
H     1.850000000     3.007000000     0.080000000
C     1.359000000     1.896000000    -1.743000000
C     2.336000000     2.741000000    -2.531000000
O     2.792000000     3.709000000    -1.961000000
O     2.790000000     2.390000000    -3.589000000
