17
-100.71845
C     0.872000000     0.464000000    -2.459000000
H     0.898000000     0.049000000    -3.463000000
C     0.147000000    -0.169000000    -1.448000000
H    -0.410000000    -1.055000000    -1.741000000
C     0.076000000     0.302000000    -0.119000000
C    -0.715000000    -0.461000000     0.912000000
H    -0.735000000     0.128000000     1.832000000
H    -1.663000000    -0.764000000     0.463000000
H    -0.182000000    -1.394000000     1.108000000
C     0.800000000     1.501000000     0.127000000
H     0.647000000     1.887000000     1.132000000
C     1.572000000     2.070000000    -0.844000000
H     2.039000000     3.031000000    -0.644000000
C     1.656000000     1.612000000    -2.163000000
C     2.313000000     2.435000000    -3.298000000
O     2.553000000     3.640000000    -3.143000000
O     2.615000000     1.770000000    -4.270000000
