17
-99.78877
C     1.604000000     0.934000000    -1.964000000
H     1.595000000     0.900000000    -3.051000000
C     0.610000000     0.196000000    -1.287000000
H    -0.104000000    -0.358000000    -1.891000000
C     0.481000000     0.228000000     0.116000000
C    -0.787000000    -0.243000000     0.777000000
H    -0.762000000    -0.287000000     1.868000000
H    -1.654000000     0.372000000     0.529000000
H    -1.058000000    -1.271000000     0.528000000
C     1.439000000     0.970000000     0.877000000
H     1.371000000     1.097000000     1.955000000
C     2.536000000     1.496000000     0.202000000
H     3.361000000     1.971000000     0.727000000
C     2.640000000     1.547000000    -1.196000000
C     3.811000000     2.217000000    -1.853000000
O     4.538000000     2.884000000    -1.164000000
O     3.918000000     2.183000000    -3.091000000
