17
-95.25061
C     1.305000000    -0.063000000    -2.214000000
H     1.391000000    -0.320000000    -3.266000000
C     0.184000000    -0.464000000    -1.445000000
H    -0.534000000    -1.133000000    -1.912000000
C     0.170000000    -0.155000000    -0.114000000
C    -0.944000000    -0.679000000     0.791000000
H    -1.614000000    -1.373000000     0.279000000
H    -0.428000000    -1.163000000     1.624000000
H    -1.490000000     0.194000000     1.154000000
C     1.125000000     0.622000000     0.494000000
H     1.004000000     0.810000000     1.558000000
C     2.162000000     1.150000000    -0.269000000
H     2.930000000     1.790000000     0.160000000
C     2.269000000     0.675000000    -1.604000000
C     3.399000000     1.159000000    -2.467000000
O     4.142000000     2.043000000    -2.107000000
O     3.520000000     0.723000000    -3.589000000
