17
-96.45212
C     1.248000000     1.133000000    -2.557000000
H     0.923000000     1.643000000    -3.460000000
C     0.269000000     0.907000000    -1.570000000
H    -0.750000000     1.216000000    -1.787000000
C     0.461000000    -0.035000000    -0.586000000
C    -0.703000000    -0.277000000     0.425000000
H    -1.305000000    -1.118000000     0.076000000
H    -0.347000000    -0.388000000     1.452000000
H    -1.266000000     0.659000000     0.436000000
C     1.776000000    -0.537000000    -0.337000000
H     2.052000000    -1.288000000     0.399000000
C     2.757000000    -0.255000000    -1.261000000
H     3.776000000    -0.615000000    -1.150000000
C     2.486000000     0.502000000    -2.432000000
C     3.583000000     0.662000000    -3.442000000
O     4.770000000     0.467000000    -3.146000000
O     3.223000000     1.105000000    -4.522000000
