17
-84.63669
C     0.326000000     1.956000000    -0.886000000
H     0.077000000     2.943000000    -1.266000000
C    -0.656000000     1.222000000    -0.258000000
H    -1.555000000     1.745000000     0.058000000
C    -0.384000000    -0.058000000     0.039000000
C    -1.259000000    -0.864000000     0.950000000
H    -1.602000000    -1.710000000     0.352000000
H    -0.795000000    -1.118000000     1.905000000
H    -2.148000000    -0.298000000     1.237000000
C     0.781000000    -0.681000000    -0.351000000
H     0.911000000    -1.653000000     0.119000000
C     1.786000000     0.120000000    -0.932000000
H     2.725000000    -0.397000000    -1.111000000
C     1.570000000     1.484000000    -1.151000000
C     2.685000000     2.329000000    -1.802000000
O     3.765000000     1.816000000    -2.129000000
O     2.494000000     3.434000000    -2.175000000
