17
-89.66388
C     1.259000000     0.079000000    -2.246000000
H     1.237000000    -0.047000000    -3.326000000
C     0.162000000    -0.385000000    -1.482000000
H    -0.573000000    -0.983000000    -2.016000000
C     0.098000000    -0.001000000    -0.149000000
C    -1.019000000    -0.563000000     0.699000000
H    -1.723000000     0.271000000     0.728000000
H    -1.367000000    -1.487000000     0.232000000
H    -0.777000000    -0.996000000     1.672000000
C     1.163000000     0.708000000     0.441000000
H     1.135000000     0.908000000     1.509000000
C     2.202000000     1.173000000    -0.363000000
H     2.989000000     1.776000000     0.082000000
C     2.264000000     0.771000000    -1.713000000
C     3.443000000     1.253000000    -2.445000000
O     4.134000000     2.042000000    -1.872000000
O     3.445000000     1.115000000    -3.667000000
