17
-81.92624
C     1.553000000     1.685000000    -2.236000000
H     1.303000000     2.590000000    -2.785000000
C     0.612000000     1.123000000    -1.411000000
H    -0.306000000     1.699000000    -1.482000000
C     0.854000000    -0.041000000    -0.702000000
C    -0.325000000    -0.770000000    -0.078000000
H    -0.009000000    -1.197000000     0.876000000
H    -1.088000000    -0.058000000     0.246000000
H    -0.719000000    -1.548000000    -0.735000000
C     2.187000000    -0.601000000    -0.714000000
H     2.372000000    -1.518000000    -0.159000000
C     3.149000000     0.025000000    -1.439000000
H     4.101000000    -0.488000000    -1.541000000
C     2.834000000     1.094000000    -2.257000000
C     3.829000000     1.711000000    -3.118000000
O     5.002000000     1.477000000    -2.927000000
O     3.625000000     2.751000000    -3.718000000
