17
-88.17380
C     0.025000000    -2.920000000     1.676000000
H     0.428000000    -3.394000000     2.568000000
C     0.330000000    -1.588000000     1.326000000
H     0.995000000    -1.025000000     1.975000000
C    -0.185000000    -1.058000000     0.175000000
C     0.097000000     0.405000000    -0.094000000
H     0.276000000     1.032000000     0.782000000
H     1.081000000     0.401000000    -0.569000000
H    -0.603000000     0.781000000    -0.843000000
C    -1.004000000    -1.804000000    -0.598000000
H    -1.412000000    -1.342000000    -1.494000000
C    -1.360000000    -3.077000000    -0.299000000
H    -2.045000000    -3.517000000    -1.019000000
C    -0.847000000    -3.665000000     0.852000000
C    -1.226000000    -5.113000000     1.243000000
O    -2.191000000    -5.711000000     0.702000000
O    -0.815000000    -5.589000000     2.243000000
