17
-96.77726
C     1.076000000     1.805000000    -2.160000000
H     0.753000000     2.705000000    -2.675000000
C     0.063000000     1.200000000    -1.412000000
H    -0.935000000     1.624000000    -1.483000000
C     0.441000000     0.180000000    -0.515000000
C    -0.567000000    -0.521000000     0.341000000
H    -0.589000000    -1.612000000     0.319000000
H    -0.409000000    -0.210000000     1.376000000
H    -1.577000000    -0.254000000     0.025000000
C     1.779000000    -0.245000000    -0.477000000
H     2.098000000    -1.072000000     0.153000000
C     2.727000000     0.426000000    -1.275000000
H     3.736000000     0.034000000    -1.170000000
C     2.416000000     1.449000000    -2.148000000
C     3.461000000     2.148000000    -2.927000000
O     4.587000000     1.658000000    -3.082000000
O     3.218000000     3.182000000    -3.497000000
