17
-92.75590
C     1.414000000     1.180000000    -2.065000000
H     1.236000000     1.978000000    -2.782000000
C     0.338000000     0.813000000    -1.224000000
H    -0.632000000     1.275000000    -1.387000000
C     0.421000000    -0.193000000    -0.259000000
C    -0.870000000    -0.626000000     0.533000000
H    -1.309000000    -1.457000000    -0.023000000
H    -0.637000000    -0.905000000     1.563000000
H    -1.631000000     0.151000000     0.634000000
C     1.659000000    -0.790000000    -0.070000000
H     1.739000000    -1.570000000     0.683000000
C     2.708000000    -0.502000000    -0.982000000
H     3.668000000    -0.998000000    -0.867000000
C     2.601000000     0.581000000    -1.914000000
C     3.738000000     0.978000000    -2.857000000
O     4.784000000     0.370000000    -2.839000000
O     3.578000000     1.836000000    -3.679000000
