17
-88.64308
C     0.528000000     1.826000000    -1.545000000
H     0.075000000     2.683000000    -2.039000000
C    -0.435000000     1.160000000    -0.769000000
H    -1.453000000     1.516000000    -0.628000000
C     0.019000000     0.045000000     0.045000000
C    -0.981000000    -0.711000000     0.865000000
H    -1.423000000     0.065000000     1.494000000
H    -1.671000000    -1.278000000     0.237000000
H    -0.548000000    -1.467000000     1.524000000
C     1.349000000    -0.431000000    -0.133000000
H     1.705000000    -1.338000000     0.348000000
C     2.238000000     0.248000000    -0.959000000
H     3.206000000    -0.187000000    -1.192000000
C     1.874000000     1.479000000    -1.467000000
C     2.829000000     2.309000000    -2.242000000
O     4.012000000     2.182000000    -2.027000000
O     2.482000000     3.269000000    -2.922000000
