17
-94.78566
C     1.900000000    -1.417000000    -0.077000000
H     2.758000000    -1.734000000    -0.664000000
C     1.050000000    -0.398000000    -0.645000000
H     1.320000000     0.087000000    -1.579000000
C    -0.065000000     0.013000000     0.089000000
C    -1.022000000     0.990000000    -0.540000000
H    -1.808000000     0.359000000    -0.960000000
H    -1.376000000     1.756000000     0.153000000
H    -0.570000000     1.658000000    -1.277000000
C    -0.282000000    -0.622000000     1.357000000
H    -1.112000000    -0.326000000     1.993000000
C     0.500000000    -1.654000000     1.891000000
H     0.243000000    -2.167000000     2.814000000
C     1.669000000    -1.998000000     1.150000000
C     2.571000000    -3.003000000     1.715000000
O     2.688000000    -2.957000000     2.921000000
O     3.295000000    -3.716000000     1.036000000
