17
-89.38269
C     0.181000000     0.729000000    -2.369000000
H    -0.405000000     1.327000000    -3.063000000
C    -0.397000000     0.375000000    -1.189000000
H    -1.447000000     0.585000000    -1.005000000
C     0.238000000    -0.433000000    -0.221000000
C    -0.582000000    -0.880000000     0.986000000
H    -0.755000000     0.002000000     1.606000000
H    -1.559000000    -1.296000000     0.732000000
H     0.062000000    -1.538000000     1.574000000
C     1.639000000    -0.640000000    -0.398000000
H     2.290000000    -1.110000000     0.335000000
C     2.242000000    -0.147000000    -1.559000000
H     3.308000000     0.027000000    -1.672000000
C     1.526000000     0.483000000    -2.592000000
C     2.231000000     1.034000000    -3.793000000
O     3.460000000     1.038000000    -3.848000000
O     1.621000000     1.364000000    -4.741000000
