17
-96.32062
C     0.717000000     1.134000000    -2.119000000
H     0.561000000     1.812000000    -2.953000000
C    -0.274000000     0.769000000    -1.213000000
H    -1.279000000     1.119000000    -1.434000000
C    -0.022000000    -0.069000000    -0.099000000
C    -1.096000000    -0.467000000     0.880000000
H    -1.353000000    -1.525000000     0.800000000
H    -0.797000000    -0.337000000     1.922000000
H    -2.056000000     0.024000000     0.708000000
C     1.292000000    -0.500000000     0.105000000
H     1.564000000    -1.047000000     1.005000000
C     2.240000000    -0.133000000    -0.797000000
H     3.276000000    -0.344000000    -0.547000000
C     1.993000000     0.696000000    -1.929000000
C     3.253000000     1.159000000    -2.719000000
O     4.177000000     0.408000000    -2.640000000
O     3.274000000     2.167000000    -3.368000000
