17
-94.94209
C     1.236000000     2.306000000    -1.713000000
H     1.046000000     3.223000000    -2.265000000
C     0.225000000     1.843000000    -0.785000000
H    -0.768000000     2.284000000    -0.821000000
C     0.447000000     0.610000000    -0.202000000
C    -0.673000000    -0.016000000     0.604000000
H    -1.634000000     0.418000000     0.320000000
H    -0.744000000    -1.106000000     0.625000000
H    -0.546000000     0.342000000     1.627000000
C     1.651000000    -0.074000000    -0.372000000
H     1.795000000    -1.016000000     0.150000000
C     2.714000000     0.402000000    -1.179000000
H     3.693000000    -0.057000000    -1.290000000
C     2.478000000     1.574000000    -1.839000000
C     3.514000000     2.098000000    -2.753000000
O     4.634000000     1.646000000    -2.673000000
O     3.260000000     3.031000000    -3.517000000
