17
-93.59264
C     0.154000000     1.434000000    -2.551000000
H    -0.411000000     1.904000000    -3.351000000
C    -0.525000000     0.911000000    -1.370000000
H    -1.608000000     0.996000000    -1.410000000
C     0.222000000     0.307000000    -0.357000000
C    -0.474000000    -0.061000000     0.944000000
H    -1.141000000     0.702000000     1.352000000
H    -1.095000000    -0.955000000     0.861000000
H     0.229000000    -0.363000000     1.722000000
C     1.542000000     0.135000000    -0.458000000
H     2.044000000    -0.345000000     0.378000000
C     2.223000000     0.563000000    -1.596000000
H     3.278000000     0.323000000    -1.699000000
C     1.574000000     1.245000000    -2.634000000
C     2.304000000     1.806000000    -3.785000000
O     3.563000000     1.822000000    -3.823000000
O     1.720000000     2.545000000    -4.608000000
