17
-93.95119
C     1.353000000     2.078000000    -1.356000000
H     1.053000000     3.086000000    -1.633000000
C     0.331000000     1.340000000    -0.718000000
H    -0.689000000     1.699000000    -0.606000000
C     0.580000000     0.073000000    -0.199000000
C    -0.585000000    -0.669000000     0.333000000
H    -1.424000000    -0.057000000     0.671000000
H    -0.943000000    -1.323000000    -0.465000000
H    -0.177000000    -1.139000000     1.230000000
C     1.841000000    -0.480000000    -0.410000000
H     2.104000000    -1.471000000    -0.048000000
C     2.891000000     0.246000000    -0.969000000
H     3.916000000    -0.105000000    -1.054000000
C     2.607000000     1.506000000    -1.476000000
C     3.693000000     2.177000000    -2.260000000
O     4.708000000     1.586000000    -2.541000000
O     3.583000000     3.333000000    -2.637000000
