17
-96.44206
C     0.551000000     1.585000000    -2.566000000
H    -0.063000000     2.315000000    -3.087000000
C     0.016000000     1.066000000    -1.411000000
H    -0.970000000     1.393000000    -1.092000000
C     0.723000000     0.162000000    -0.608000000
C     0.082000000    -0.492000000     0.545000000
H    -0.309000000     0.270000000     1.222000000
H    -0.693000000    -1.099000000     0.072000000
H     0.792000000    -1.051000000     1.158000000
C     2.044000000    -0.176000000    -0.978000000
H     2.627000000    -0.832000000    -0.336000000
C     2.615000000     0.271000000    -2.120000000
H     3.597000000    -0.079000000    -2.425000000
C     1.804000000     1.086000000    -2.948000000
C     2.404000000     1.585000000    -4.194000000
O     3.570000000     1.140000000    -4.492000000
O     1.817000000     2.355000000    -4.923000000
