17
-91.08518
C     0.825000000     1.673000000    -2.008000000
H     0.479000000     2.465000000    -2.667000000
C     0.053000000     1.098000000    -1.060000000
H    -0.972000000     1.412000000    -0.879000000
C     0.488000000     0.008000000    -0.368000000
C    -0.472000000    -0.628000000     0.682000000
H    -1.022000000    -1.411000000     0.155000000
H    -0.056000000    -1.024000000     1.612000000
H    -1.255000000     0.047000000     1.033000000
C     1.815000000    -0.362000000    -0.551000000
H     2.166000000    -1.192000000     0.057000000
C     2.654000000     0.241000000    -1.439000000
H     3.703000000    -0.033000000    -1.500000000
C     2.127000000     1.250000000    -2.219000000
C     3.040000000     1.805000000    -3.267000000
O     4.224000000     1.498000000    -3.279000000
O     2.711000000     2.840000000    -3.901000000
