17
-89.95292
C    -0.312000000     1.378000000    -2.215000000
H    -0.793000000     2.165000000    -2.790000000
C    -0.738000000     0.953000000    -1.009000000
H    -1.589000000     1.369000000    -0.476000000
C    -0.025000000     0.077000000    -0.253000000
C    -0.438000000    -0.151000000     1.192000000
H    -0.459000000     0.804000000     1.721000000
H    -1.391000000    -0.684000000     1.168000000
H     0.197000000    -0.970000000     1.534000000
C     1.065000000    -0.601000000    -0.775000000
H     1.624000000    -1.352000000    -0.223000000
C     1.494000000    -0.271000000    -2.039000000
H     2.343000000    -0.782000000    -2.484000000
C     0.789000000     0.739000000    -2.742000000
C     1.325000000     1.187000000    -4.080000000
O     2.333000000     0.675000000    -4.499000000
O     0.903000000     2.176000000    -4.708000000
