17
-89.38517
C    -0.512000000    -0.803000000    -2.963000000
H    -1.237000000    -0.661000000    -3.760000000
C    -0.758000000    -0.259000000    -1.772000000
H    -1.692000000     0.285000000    -1.660000000
C     0.142000000    -0.467000000    -0.700000000
C    -0.092000000     0.150000000     0.664000000
H     0.465000000    -0.446000000     1.390000000
H     0.332000000     1.156000000     0.660000000
H    -1.112000000     0.178000000     1.054000000
C     1.257000000    -1.284000000    -0.890000000
H     1.899000000    -1.401000000    -0.021000000
C     1.530000000    -1.826000000    -2.170000000
H     2.417000000    -2.443000000    -2.291000000
C     0.627000000    -1.581000000    -3.223000000
C     0.822000000    -2.138000000    -4.673000000
O     1.851000000    -2.707000000    -4.979000000
O    -0.003000000    -2.034000000    -5.486000000
