17
-95.57867
C    -0.510000000    -0.802000000    -2.341000000
H    -1.246000000    -0.748000000    -3.139000000
C    -0.774000000    -0.161000000    -1.144000000
H    -1.661000000     0.455000000    -1.016000000
C     0.020000000    -0.310000000    -0.060000000
C    -0.291000000     0.251000000     1.341000000
H    -0.326000000    -0.601000000     2.023000000
H     0.473000000     0.996000000     1.575000000
H    -1.312000000     0.635000000     1.297000000
C     1.248000000    -0.982000000    -0.195000000
H     1.819000000    -1.094000000     0.723000000
C     1.569000000    -1.541000000    -1.444000000
H     2.455000000    -2.172000000    -1.459000000
C     0.749000000    -1.330000000    -2.559000000
C     1.023000000    -2.020000000    -3.846000000
O     2.205000000    -2.305000000    -4.121000000
O     0.126000000    -2.171000000    -4.667000000
