17
-94.21870
C    -0.809000000    -0.119000000    -2.780000000
H    -1.569000000     0.019000000    -3.544000000
C    -1.131000000     0.270000000    -1.462000000
H    -2.061000000     0.804000000    -1.278000000
C    -0.285000000    -0.103000000    -0.420000000
C    -0.561000000     0.325000000     1.060000000
H     0.045000000     1.140000000     1.462000000
H    -1.614000000     0.536000000     1.257000000
H    -0.290000000    -0.517000000     1.701000000
C     0.816000000    -0.941000000    -0.699000000
H     1.399000000    -1.450000000     0.064000000
C     1.044000000    -1.333000000    -2.021000000
H     1.764000000    -2.125000000    -2.210000000
C     0.292000000    -0.903000000    -3.071000000
C     0.635000000    -1.424000000    -4.498000000
O     1.190000000    -2.515000000    -4.665000000
O     0.117000000    -0.907000000    -5.503000000
