17
-100.32420
C    -0.644000000    -0.232000000    -2.688000000
H    -1.402000000     0.006000000    -3.430000000
C    -0.986000000    -0.074000000    -1.328000000
H    -1.971000000     0.269000000    -1.023000000
C     0.000000000    -0.316000000    -0.365000000
C    -0.345000000    -0.258000000     1.101000000
H    -1.052000000     0.535000000     1.350000000
H    -0.729000000    -1.226000000     1.429000000
H     0.557000000    -0.105000000     1.697000000
C     1.263000000    -0.859000000    -0.707000000
H     1.944000000    -1.178000000     0.078000000
C     1.508000000    -1.161000000    -2.051000000
H     2.403000000    -1.727000000    -2.297000000
C     0.593000000    -0.742000000    -3.055000000
C     0.941000000    -0.961000000    -4.502000000
O     1.703000000    -1.885000000    -4.766000000
O     0.409000000    -0.366000000    -5.433000000
