17
-96.71202
C    -0.644000000     0.224000000    -2.523000000
H    -1.113000000     0.804000000    -3.314000000
C    -0.839000000     0.574000000    -1.210000000
H    -1.476000000     1.431000000    -1.010000000
C    -0.176000000     0.003000000    -0.139000000
C    -0.595000000     0.363000000     1.291000000
H    -0.622000000    -0.568000000     1.862000000
H    -0.029000000     1.143000000     1.803000000
H    -1.650000000     0.623000000     1.393000000
C     0.722000000    -1.046000000    -0.432000000
H     1.184000000    -1.436000000     0.471000000
C     0.869000000    -1.497000000    -1.774000000
H     1.508000000    -2.329000000    -2.056000000
C     0.197000000    -0.862000000    -2.840000000
C     0.499000000    -1.265000000    -4.253000000
O     1.497000000    -1.935000000    -4.538000000
O    -0.154000000    -0.681000000    -5.116000000
