17
-93.29859
C    -1.199000000    -0.717000000    -2.327000000
H    -2.005000000    -0.546000000    -3.037000000
C    -1.171000000     0.058000000    -1.168000000
H    -1.868000000     0.893000000    -1.148000000
C    -0.245000000    -0.289000000    -0.190000000
C    -0.143000000     0.604000000     1.051000000
H    -1.120000000     1.029000000     1.291000000
H     0.038000000    -0.015000000     1.932000000
H     0.673000000     1.329000000     1.023000000
C     0.695000000    -1.312000000    -0.421000000
H     1.383000000    -1.636000000     0.356000000
C     0.624000000    -2.084000000    -1.610000000
H     1.263000000    -2.950000000    -1.759000000
C    -0.251000000    -1.711000000    -2.603000000
C    -0.267000000    -2.424000000    -3.927000000
O     0.676000000    -3.179000000    -4.207000000
O    -0.911000000    -1.963000000    -4.829000000
