17
-92.36485
C    -0.650000000    -0.823000000    -2.613000000
H    -1.442000000    -0.843000000    -3.357000000
C    -0.756000000     0.006000000    -1.499000000
H    -1.528000000     0.771000000    -1.494000000
C     0.074000000    -0.159000000    -0.382000000
C    -0.174000000     0.587000000     0.862000000
H     0.112000000    -0.038000000     1.710000000
H     0.404000000     1.509000000     0.778000000
H    -1.228000000     0.839000000     0.993000000
C     1.190000000    -1.000000000    -0.530000000
H     1.729000000    -1.150000000     0.402000000
C     1.366000000    -1.737000000    -1.714000000
H     2.229000000    -2.377000000    -1.874000000
C     0.475000000    -1.614000000    -2.755000000
C     0.711000000    -2.455000000    -3.967000000
O     1.702000000    -3.206000000    -4.061000000
O    -0.020000000    -2.436000000    -4.892000000
