17
-93.78430
C     0.239000000     0.010000000    -2.703000000
H    -0.271000000     0.406000000    -3.577000000
C    -0.244000000     0.328000000    -1.447000000
H    -1.050000000     1.056000000    -1.401000000
C     0.309000000    -0.134000000    -0.295000000
C    -0.235000000     0.347000000     0.991000000
H     0.064000000    -0.205000000     1.884000000
H     0.021000000     1.406000000     1.072000000
H    -1.313000000     0.184000000     0.943000000
C     1.377000000    -1.000000000    -0.429000000
H     1.875000000    -1.379000000     0.459000000
C     1.926000000    -1.353000000    -1.662000000
H     2.743000000    -2.071000000    -1.658000000
C     1.382000000    -0.820000000    -2.877000000
C     2.016000000    -1.068000000    -4.207000000
O     3.029000000    -1.728000000    -4.339000000
O     1.539000000    -0.470000000    -5.115000000
