17
-96.96575
C     0.192000000     0.224000000    -2.408000000
H    -0.064000000     0.709000000    -3.346000000
C    -0.523000000     0.619000000    -1.217000000
H    -1.236000000     1.433000000    -1.321000000
C    -0.292000000     0.083000000     0.014000000
C    -0.973000000     0.637000000     1.149000000
H    -1.347000000     1.642000000     0.946000000
H    -1.786000000    -0.014000000     1.479000000
H    -0.331000000     0.808000000     2.016000000
C     0.670000000    -0.906000000     0.090000000
H     0.928000000    -1.246000000     1.090000000
C     1.309000000    -1.393000000    -1.071000000
H     2.006000000    -2.227000000    -1.066000000
C     1.067000000    -0.804000000    -2.353000000
C     1.624000000    -1.333000000    -3.630000000
O     2.662000000    -2.020000000    -3.563000000
O     1.097000000    -1.033000000    -4.680000000
