17
-91.21920
C     0.858000000     0.533000000    -2.792000000
H     0.358000000     0.973000000    -3.651000000
C     0.256000000     0.684000000    -1.536000000
H    -0.666000000     1.257000000    -1.474000000
C     0.854000000     0.045000000    -0.430000000
C     0.158000000     0.194000000     0.953000000
H    -0.527000000     1.044000000     0.908000000
H    -0.468000000    -0.698000000     1.028000000
H     0.812000000     0.206000000     1.828000000
C     2.037000000    -0.643000000    -0.557000000
H     2.575000000    -1.086000000     0.277000000
C     2.665000000    -0.726000000    -1.800000000
H     3.415000000    -1.481000000    -2.021000000
C     2.002000000    -0.223000000    -2.894000000
C     2.522000000    -0.674000000    -4.261000000
O     3.598000000    -1.158000000    -4.334000000
O     1.688000000    -0.825000000    -5.157000000
