17
-91.96955
C    -0.042000000    -0.054000000    -2.699000000
H    -0.520000000     0.348000000    -3.589000000
C    -0.674000000     0.194000000    -1.475000000
H    -1.522000000     0.873000000    -1.512000000
C    -0.033000000    -0.181000000    -0.276000000
C    -0.455000000     0.164000000     1.148000000
H    -1.266000000     0.895000000     1.172000000
H    -0.920000000    -0.741000000     1.543000000
H     0.346000000     0.495000000     1.813000000
C     1.054000000    -1.133000000    -0.347000000
H     1.572000000    -1.442000000     0.557000000
C     1.581000000    -1.479000000    -1.600000000
H     2.485000000    -2.079000000    -1.660000000
C     1.083000000    -0.883000000    -2.816000000
C     1.800000000    -1.085000000    -4.133000000
O     2.886000000    -1.603000000    -4.169000000
O     1.395000000    -0.622000000    -5.197000000
