17
-87.79471
C     0.535000000    -0.203000000    -2.699000000
H     0.455000000     0.294000000    -3.662000000
C    -0.198000000     0.339000000    -1.654000000
H    -0.950000000     1.121000000    -1.711000000
C     0.098000000    -0.088000000    -0.357000000
C    -0.367000000     0.554000000     0.970000000
H    -1.092000000     1.352000000     0.797000000
H    -0.993000000    -0.185000000     1.474000000
H     0.445000000     0.983000000     1.561000000
C     1.161000000    -0.994000000    -0.143000000
H     1.561000000    -1.240000000     0.837000000
C     1.910000000    -1.509000000    -1.158000000
H     2.599000000    -2.320000000    -0.936000000
C     1.555000000    -1.148000000    -2.415000000
C     2.325000000    -1.631000000    -3.644000000
O     3.373000000    -2.205000000    -3.421000000
O     1.766000000    -1.708000000    -4.722000000
