17
-85.80801
C    -0.240000000    -1.431000000    -2.603000000
H    -1.044000000    -1.696000000    -3.285000000
C    -0.620000000    -0.644000000    -1.600000000
H    -1.661000000    -0.360000000    -1.470000000
C     0.322000000    -0.130000000    -0.737000000
C    -0.098000000     0.391000000     0.599000000
H    -1.152000000     0.614000000     0.775000000
H     0.236000000    -0.234000000     1.430000000
H     0.463000000     1.326000000     0.660000000
C     1.659000000    -0.479000000    -0.822000000
H     2.443000000    -0.066000000    -0.193000000
C     2.016000000    -1.285000000    -1.887000000
H     3.077000000    -1.437000000    -2.067000000
C     1.090000000    -1.669000000    -2.822000000
C     1.589000000    -2.307000000    -4.044000000
O     2.811000000    -2.506000000    -4.232000000
O     0.821000000    -2.569000000    -4.946000000
