17
-87.89922
C    -0.047000000    -0.901000000    -2.781000000
H    -0.698000000    -1.032000000    -3.642000000
C    -0.470000000    -0.275000000    -1.611000000
H    -1.517000000     0.014000000    -1.568000000
C     0.311000000    -0.367000000    -0.432000000
C    -0.140000000     0.162000000     0.945000000
H    -1.225000000     0.283000000     0.945000000
H     0.183000000    -0.432000000     1.803000000
H     0.291000000     1.154000000     1.090000000
C     1.610000000    -0.823000000    -0.536000000
H     2.256000000    -0.801000000     0.337000000
C     2.096000000    -1.259000000    -1.750000000
H     3.118000000    -1.595000000    -1.906000000
C     1.256000000    -1.454000000    -2.861000000
C     1.686000000    -2.175000000    -4.118000000
O     2.818000000    -2.428000000    -4.465000000
O     0.791000000    -2.684000000    -4.675000000
