17
-94.99860
C    -0.104000000    -1.590000000    -2.813000000
H    -0.887000000    -1.698000000    -3.560000000
C    -0.298000000    -0.754000000    -1.744000000
H    -1.221000000    -0.188000000    -1.651000000
C     0.677000000    -0.568000000    -0.807000000
C     0.470000000     0.459000000     0.278000000
H     0.601000000     0.099000000     1.301000000
H     1.017000000     1.397000000     0.158000000
H    -0.564000000     0.811000000     0.276000000
C     1.833000000    -1.226000000    -0.899000000
H     2.583000000    -1.070000000    -0.129000000
C     2.079000000    -2.039000000    -2.012000000
H     3.039000000    -2.543000000    -2.093000000
C     1.107000000    -2.203000000    -3.028000000
C     1.440000000    -2.936000000    -4.303000000
O     2.595000000    -3.129000000    -4.613000000
O     0.549000000    -3.158000000    -5.166000000
