17
-89.73519
C     0.014000000    -1.311000000    -2.563000000
H    -0.582000000    -1.381000000    -3.469000000
C    -0.551000000    -0.783000000    -1.377000000
H    -1.559000000    -0.377000000    -1.414000000
C     0.192000000    -0.594000000    -0.184000000
C    -0.410000000     0.003000000     1.098000000
H    -1.192000000    -0.645000000     1.498000000
H     0.417000000     0.163000000     1.794000000
H    -0.723000000     1.024000000     0.868000000
C     1.536000000    -0.869000000    -0.312000000
H     2.143000000    -0.705000000     0.575000000
C     2.130000000    -1.356000000    -1.440000000
H     3.208000000    -1.496000000    -1.446000000
C     1.392000000    -1.573000000    -2.566000000
C     2.024000000    -2.234000000    -3.748000000
O     3.185000000    -2.461000000    -3.709000000
O     1.419000000    -2.303000000    -4.790000000
