17
-95.66298
C    -0.234000000    -1.063000000    -2.526000000
H    -0.915000000    -1.289000000    -3.342000000
C    -0.691000000    -0.454000000    -1.357000000
H    -1.726000000    -0.129000000    -1.287000000
C     0.292000000    -0.306000000    -0.328000000
C    -0.153000000     0.022000000     1.064000000
H     0.441000000    -0.443000000     1.854000000
H    -0.171000000     1.098000000     1.246000000
H    -1.213000000    -0.233000000     1.124000000
C     1.631000000    -0.602000000    -0.505000000
H     2.273000000    -0.360000000     0.337000000
C     2.039000000    -1.176000000    -1.710000000
H     3.100000000    -1.376000000    -1.837000000
C     1.127000000    -1.403000000    -2.706000000
C     1.542000000    -2.227000000    -3.872000000
O     2.702000000    -2.535000000    -4.073000000
O     0.732000000    -2.388000000    -4.811000000
