17
-93.95606
C    -0.236000000    -0.707000000    -2.450000000
H    -0.745000000    -0.669000000    -3.410000000
C    -0.696000000    -0.013000000    -1.327000000
H    -1.650000000     0.507000000    -1.301000000
C     0.000000000    -0.089000000    -0.135000000
C    -0.629000000     0.383000000     1.166000000
H    -1.607000000     0.798000000     0.915000000
H    -0.548000000    -0.369000000     1.954000000
H    -0.084000000     1.253000000     1.539000000
C     1.218000000    -0.747000000    -0.016000000
H     1.816000000    -0.693000000     0.890000000
C     1.718000000    -1.409000000    -1.163000000
H     2.673000000    -1.922000000    -1.084000000
C     0.940000000    -1.466000000    -2.325000000
C     1.600000000    -2.164000000    -3.555000000
O     2.772000000    -2.382000000    -3.466000000
O     1.047000000    -2.185000000    -4.628000000
