17
-97.33708
C     0.094000000    -1.383000000    -2.710000000
H    -0.477000000    -1.568000000    -3.617000000
C    -0.529000000    -0.725000000    -1.660000000
H    -1.503000000    -0.298000000    -1.884000000
C     0.191000000    -0.455000000    -0.446000000
C    -0.508000000     0.104000000     0.784000000
H     0.152000000    -0.169000000     1.609000000
H    -0.559000000     1.173000000     0.568000000
H    -1.508000000    -0.307000000     0.937000000
C     1.512000000    -0.775000000    -0.392000000
H     2.049000000    -0.480000000     0.507000000
C     2.180000000    -1.373000000    -1.473000000
H     3.267000000    -1.386000000    -1.471000000
C     1.433000000    -1.713000000    -2.619000000
C     2.203000000    -2.024000000    -3.896000000
O     3.308000000    -2.562000000    -3.787000000
O     1.623000000    -1.822000000    -4.954000000
