17
-91.10516
C    -0.769000000    -0.303000000    -2.526000000
H    -1.543000000    -0.132000000    -3.270000000
C    -0.982000000     0.131000000    -1.223000000
H    -1.825000000     0.749000000    -0.923000000
C    -0.079000000    -0.198000000    -0.263000000
C    -0.355000000     0.150000000     1.216000000
H     0.116000000    -0.452000000     1.996000000
H    -0.178000000     1.222000000     1.317000000
H    -1.439000000     0.100000000     1.332000000
C     1.042000000    -0.955000000    -0.578000000
H     1.851000000    -1.064000000     0.139000000
C     1.156000000    -1.526000000    -1.871000000
H     2.045000000    -2.064000000    -2.191000000
C     0.272000000    -1.207000000    -2.880000000
C     0.401000000    -1.686000000    -4.263000000
O     1.328000000    -2.325000000    -4.714000000
O    -0.457000000    -1.293000000    -5.036000000
