17
-93.61178
C    -0.200000000    -0.506000000    -2.431000000
H    -0.855000000    -0.585000000    -3.295000000
C    -0.760000000    -0.070000000    -1.208000000
H    -1.838000000     0.060000000    -1.166000000
C     0.043000000     0.056000000    -0.070000000
C    -0.540000000     0.450000000     1.238000000
H    -0.063000000    -0.039000000     2.089000000
H    -0.415000000     1.511000000     1.465000000
H    -1.555000000     0.055000000     1.149000000
C     1.423000000    -0.113000000    -0.226000000
H     2.057000000     0.083000000     0.635000000
C     2.037000000    -0.486000000    -1.470000000
H     3.118000000    -0.582000000    -1.537000000
C     1.208000000    -0.672000000    -2.588000000
C     1.792000000    -1.215000000    -3.866000000
O     2.919000000    -1.009000000    -4.213000000
O     1.060000000    -1.793000000    -4.647000000
