17
-97.80383
C     0.273000000    -0.798000000    -2.572000000
H    -0.161000000    -0.812000000    -3.569000000
C    -0.450000000    -0.321000000    -1.475000000
H    -1.473000000    -0.003000000    -1.656000000
C     0.079000000    -0.368000000    -0.143000000
C    -0.790000000     0.139000000     0.985000000
H    -1.159000000    -0.604000000     1.696000000
H    -0.219000000     0.907000000     1.510000000
H    -1.655000000     0.671000000     0.584000000
C     1.367000000    -0.862000000     0.014000000
H     1.780000000    -0.728000000     1.010000000
C     2.094000000    -1.327000000    -1.097000000
H     3.107000000    -1.696000000    -0.958000000
C     1.602000000    -1.351000000    -2.390000000
C     2.449000000    -1.818000000    -3.550000000
O     3.649000000    -1.913000000    -3.442000000
O     1.908000000    -1.769000000    -4.652000000
