17
-91.74163
C    -0.492000000    -0.737000000    -2.568000000
H    -1.264000000    -0.694000000    -3.333000000
C    -0.822000000    -0.271000000    -1.308000000
H    -1.724000000     0.328000000    -1.205000000
C     0.174000000    -0.311000000    -0.295000000
C    -0.144000000     0.197000000     1.079000000
H    -0.046000000    -0.612000000     1.806000000
H     0.482000000     1.057000000     1.325000000
H    -1.185000000     0.506000000     1.199000000
C     1.438000000    -0.803000000    -0.645000000
H     2.211000000    -0.696000000     0.112000000
C     1.675000000    -1.334000000    -1.957000000
H     2.604000000    -1.839000000    -2.210000000
C     0.689000000    -1.310000000    -2.892000000
C     0.860000000    -1.897000000    -4.257000000
O     1.898000000    -2.593000000    -4.506000000
O     0.266000000    -1.457000000    -5.202000000
