17
-96.91927
C     0.237000000    -1.661000000    -2.614000000
H    -0.242000000    -2.064000000    -3.503000000
C    -0.519000000    -1.120000000    -1.577000000
H    -1.597000000    -0.981000000    -1.595000000
C     0.103000000    -0.574000000    -0.468000000
C    -0.578000000     0.013000000     0.702000000
H    -1.573000000    -0.402000000     0.875000000
H    -0.098000000    -0.174000000     1.665000000
H    -0.714000000     1.079000000     0.508000000
C     1.484000000    -0.560000000    -0.426000000
H     2.029000000    -0.042000000     0.359000000
C     2.300000000    -1.134000000    -1.490000000
H     3.375000000    -0.987000000    -1.431000000
C     1.618000000    -1.752000000    -2.522000000
C     2.403000000    -2.236000000    -3.773000000
O     3.642000000    -2.295000000    -3.810000000
O     1.796000000    -2.547000000    -4.795000000
