17
-87.75427
C    -0.571000000    -0.460000000    -3.856000000
H    -1.144000000    -0.277000000    -4.761000000
C    -1.027000000     0.188000000    -2.703000000
H    -1.981000000     0.706000000    -2.646000000
C    -0.457000000    -0.164000000    -1.529000000
C    -0.961000000     0.407000000    -0.172000000
H    -0.876000000    -0.318000000     0.640000000
H    -0.404000000     1.292000000     0.143000000
H    -2.016000000     0.583000000    -0.393000000
C     0.713000000    -0.921000000    -1.500000000
H     1.224000000    -1.167000000    -0.573000000
C     1.150000000    -1.597000000    -2.614000000
H     1.884000000    -2.399000000    -2.590000000
C     0.592000000    -1.311000000    -3.840000000
C     1.098000000    -1.946000000    -5.101000000
O     2.215000000    -2.352000000    -5.146000000
O     0.349000000    -2.110000000    -6.030000000
