17
-79.04392
C    -0.352000000    -1.060000000    -2.909000000
H    -0.948000000    -0.838000000    -3.790000000
C    -0.705000000    -0.403000000    -1.741000000
H    -1.583000000     0.232000000    -1.646000000
C     0.158000000    -0.453000000    -0.651000000
C    -0.272000000     0.214000000     0.573000000
H     0.083000000     1.247000000     0.576000000
H    -1.352000000     0.053000000     0.570000000
H     0.224000000    -0.331000000     1.379000000
C     1.332000000    -1.223000000    -0.712000000
H     1.995000000    -1.252000000     0.149000000
C     1.655000000    -1.889000000    -1.857000000
H     2.575000000    -2.468000000    -1.835000000
C     0.899000000    -1.740000000    -3.010000000
C     1.471000000    -2.172000000    -4.359000000
O     2.615000000    -2.485000000    -4.382000000
O     0.735000000    -2.542000000    -5.180000000
