17
-85.75338
C    -0.351000000    -0.287000000    -2.796000000
H    -0.936000000    -0.071000000    -3.686000000
C    -0.868000000     0.028000000    -1.595000000
H    -1.844000000     0.490000000    -1.469000000
C    -0.169000000    -0.325000000    -0.434000000
C    -0.620000000     0.017000000     1.003000000
H    -1.624000000    -0.338000000     1.246000000
H     0.081000000    -0.542000000     1.626000000
H    -0.368000000     1.028000000     1.329000000
C     1.080000000    -1.005000000    -0.476000000
H     1.621000000    -1.168000000     0.453000000
C     1.590000000    -1.296000000    -1.705000000
H     2.549000000    -1.808000000    -1.696000000
C     0.877000000    -1.014000000    -2.878000000
C     1.419000000    -1.456000000    -4.210000000
O     2.381000000    -2.267000000    -4.224000000
O     0.718000000    -1.506000000    -5.224000000
