17
-93.68716
C     0.099000000    -1.722000000    -2.308000000
H    -0.408000000    -2.165000000    -3.161000000
C    -0.585000000    -0.890000000    -1.379000000
H    -1.617000000    -0.641000000    -1.616000000
C     0.034000000    -0.249000000    -0.329000000
C    -0.579000000     0.770000000     0.565000000
H    -1.652000000     0.573000000     0.514000000
H    -0.207000000     0.635000000     1.582000000
H    -0.140000000     1.727000000     0.276000000
C     1.365000000    -0.550000000    -0.090000000
H     1.837000000    -0.071000000     0.764000000
C     2.063000000    -1.423000000    -0.923000000
H     3.087000000    -1.641000000    -0.631000000
C     1.454000000    -1.964000000    -2.095000000
C     2.229000000    -2.963000000    -2.923000000
O     3.377000000    -3.294000000    -2.591000000
O     1.893000000    -3.119000000    -4.106000000
