17
-98.29682
C     0.326000000    -0.643000000    -2.212000000
H    -0.039000000    -0.863000000    -3.212000000
C    -0.571000000    -0.300000000    -1.154000000
H    -1.616000000    -0.195000000    -1.434000000
C    -0.017000000    -0.005000000     0.064000000
C    -0.939000000     0.473000000     1.159000000
H    -1.464000000    -0.360000000     1.631000000
H    -0.340000000     0.954000000     1.935000000
H    -1.734000000     1.047000000     0.678000000
C     1.369000000    -0.168000000     0.334000000
H     1.865000000     0.012000000     1.285000000
C     2.152000000    -0.717000000    -0.686000000
H     3.184000000    -0.917000000    -0.407000000
C     1.680000000    -0.929000000    -1.981000000
C     2.551000000    -1.423000000    -3.146000000
O     3.769000000    -1.326000000    -3.125000000
O     2.000000000    -1.764000000    -4.216000000
