17
-86.91102
C    -0.164000000    -1.776000000    -2.161000000
H    -0.761000000    -2.302000000    -2.902000000
C    -0.828000000    -0.853000000    -1.300000000
H    -1.892000000    -0.698000000    -1.459000000
C    -0.117000000    -0.203000000    -0.281000000
C    -0.800000000     0.780000000     0.706000000
H    -0.873000000     0.462000000     1.748000000
H    -0.288000000     1.744000000     0.729000000
H    -1.794000000     0.972000000     0.296000000
C     1.208000000    -0.472000000    -0.130000000
H     1.718000000     0.011000000     0.700000000
C     1.886000000    -1.360000000    -1.042000000
H     2.923000000    -1.586000000    -0.807000000
C     1.180000000    -2.037000000    -2.018000000
C     1.846000000    -3.012000000    -2.970000000
O     3.025000000    -2.839000000    -3.206000000
O     1.154000000    -3.502000000    -3.799000000
