17
-94.72869
C     2.186000000    -2.950000000     1.523000000
H     2.038000000    -4.013000000     1.699000000
C     1.084000000    -2.180000000     1.109000000
H     0.244000000    -2.826000000     0.868000000
C     1.215000000    -0.805000000     0.856000000
C    -0.044000000    -0.035000000     0.304000000
H    -0.499000000    -0.625000000    -0.495000000
H    -0.845000000    -0.010000000     1.045000000
H     0.200000000     0.984000000    -0.002000000
C     2.340000000    -0.179000000     1.287000000
H     2.499000000     0.896000000     1.319000000
C     3.457000000    -0.945000000     1.740000000
H     4.357000000    -0.384000000     1.978000000
C     3.440000000    -2.296000000     1.840000000
C     4.551000000    -3.155000000     2.394000000
O     5.600000000    -2.603000000     2.638000000
O     4.408000000    -4.367000000     2.666000000
