17
-97.86847
C     0.232000000    -0.362000000    -2.241000000
H    -0.355000000    -0.581000000    -3.128000000
C    -0.508000000    -0.132000000    -1.088000000
H    -1.595000000    -0.148000000    -1.113000000
C     0.114000000     0.184000000     0.123000000
C    -0.622000000     0.478000000     1.358000000
H    -0.529000000    -0.254000000     2.163000000
H    -0.127000000     1.337000000     1.815000000
H    -1.682000000     0.676000000     1.187000000
C     1.499000000     0.255000000     0.134000000
H     2.015000000     0.623000000     1.017000000
C     2.233000000    -0.092000000    -1.046000000
H     3.316000000    -0.016000000    -1.111000000
C     1.640000000    -0.358000000    -2.298000000
C     2.401000000    -0.630000000    -3.607000000
O     3.591000000    -0.412000000    -3.713000000
O     1.774000000    -1.049000000    -4.577000000
