17
-97.76572
C    -0.815000000    -0.801000000    -2.449000000
H    -1.569000000    -0.975000000    -3.213000000
C    -1.147000000    -0.236000000    -1.249000000
H    -2.164000000     0.106000000    -1.073000000
C    -0.145000000    -0.035000000    -0.252000000
C    -0.517000000     0.463000000     1.153000000
H    -1.341000000     1.179000000     1.166000000
H    -0.767000000    -0.372000000     1.811000000
H     0.378000000     0.970000000     1.519000000
C     1.130000000    -0.493000000    -0.535000000
H     1.837000000    -0.496000000     0.291000000
C     1.501000000    -0.931000000    -1.805000000
H     2.533000000    -1.241000000    -1.950000000
C     0.525000000    -1.004000000    -2.806000000
C     0.810000000    -1.565000000    -4.179000000
O     1.980000000    -1.741000000    -4.613000000
O    -0.107000000    -1.848000000    -4.904000000
