17
-93.88036
C     0.156000000    -1.292000000    -2.517000000
H    -0.435000000    -1.466000000    -3.413000000
C    -0.512000000    -0.598000000    -1.454000000
H    -1.572000000    -0.389000000    -1.578000000
C     0.212000000    -0.290000000    -0.326000000
C    -0.464000000     0.483000000     0.766000000
H    -0.099000000     1.512000000     0.766000000
H    -1.531000000     0.250000000     0.805000000
H    -0.169000000     0.042000000     1.721000000
C     1.570000000    -0.667000000    -0.158000000
H     2.158000000    -0.429000000     0.725000000
C     2.193000000    -1.413000000    -1.210000000
H     3.232000000    -1.715000000    -1.107000000
C     1.476000000    -1.797000000    -2.369000000
C     2.147000000    -2.625000000    -3.349000000
O     3.393000000    -2.682000000    -3.415000000
O     1.446000000    -2.945000000    -4.325000000
