17
-86.70712
C    -0.091000000    -1.110000000    -2.490000000
H    -0.572000000    -1.048000000    -3.463000000
C    -0.713000000    -0.543000000    -1.382000000
H    -1.747000000    -0.244000000    -1.533000000
C    -0.023000000    -0.406000000    -0.193000000
C    -0.653000000     0.356000000     0.920000000
H    -0.550000000    -0.137000000     1.889000000
H    -0.271000000     1.375000000     1.010000000
H    -1.677000000     0.684000000     0.730000000
C     1.394000000    -0.689000000    -0.115000000
H     1.976000000    -0.424000000     0.764000000
C     1.880000000    -1.464000000    -1.117000000
H     2.925000000    -1.733000000    -0.984000000
C     1.205000000    -1.603000000    -2.359000000
C     1.910000000    -2.369000000    -3.392000000
O     3.059000000    -2.708000000    -3.257000000
O     1.336000000    -2.715000000    -4.389000000
