17
-91.36878
C     0.235000000    -1.379000000    -1.970000000
H    -0.286000000    -1.576000000    -2.903000000
C    -0.499000000    -0.754000000    -0.938000000
H    -1.566000000    -0.628000000    -1.107000000
C     0.088000000    -0.348000000     0.207000000
C    -0.677000000     0.323000000     1.234000000
H    -0.009000000     1.015000000     1.751000000
H    -1.522000000     0.935000000     0.914000000
H    -1.028000000    -0.376000000     1.996000000
C     1.479000000    -0.504000000     0.361000000
H     1.894000000    -0.159000000     1.304000000
C     2.288000000    -1.057000000    -0.662000000
H     3.351000000    -1.229000000    -0.513000000
C     1.625000000    -1.451000000    -1.862000000
C     2.496000000    -1.892000000    -3.031000000
O     3.689000000    -1.819000000    -2.944000000
O     2.000000000    -2.292000000    -4.026000000
