17
-90.53413
C    -0.528000000    -1.351000000    -2.140000000
H    -1.392000000    -1.845000000    -2.577000000
C    -0.750000000    -0.636000000    -0.952000000
H    -1.701000000    -0.553000000    -0.431000000
C     0.436000000    -0.147000000    -0.334000000
C     0.380000000     0.243000000     1.128000000
H     0.038000000     1.275000000     1.228000000
H    -0.167000000    -0.498000000     1.714000000
H     1.335000000     0.058000000     1.624000000
C     1.752000000    -0.277000000    -0.881000000
H     2.656000000     0.079000000    -0.393000000
C     1.851000000    -0.876000000    -2.146000000
H     2.707000000    -0.726000000    -2.799000000
C     0.707000000    -1.378000000    -2.825000000
C     0.856000000    -2.004000000    -4.193000000
O     1.904000000    -1.995000000    -4.787000000
O    -0.084000000    -2.625000000    -4.714000000
