17
-96.77803
C     0.523000000    -2.118000000     1.579000000
H     1.040000000    -2.656000000     2.369000000
C     0.710000000    -0.825000000     1.224000000
H     1.401000000    -0.186000000     1.768000000
C    -0.106000000    -0.323000000     0.184000000
C    -0.089000000     1.188000000    -0.074000000
H    -0.306000000     1.818000000     0.792000000
H     0.861000000     1.523000000    -0.496000000
H    -0.785000000     1.525000000    -0.844000000
C    -1.000000000    -1.099000000    -0.542000000
H    -1.534000000    -0.722000000    -1.410000000
C    -0.979000000    -2.445000000    -0.296000000
H    -1.462000000    -3.146000000    -0.971000000
C    -0.240000000    -2.976000000     0.733000000
C    -0.222000000    -4.467000000     1.012000000
O    -1.102000000    -5.174000000     0.559000000
O     0.695000000    -4.993000000     1.659000000
