17
-87.81032
C    -1.783000000    -0.671000000    -1.774000000
H    -2.818000000    -0.465000000    -2.038000000
C    -1.419000000    -0.363000000    -0.474000000
H    -2.171000000    -0.127000000     0.274000000
C    -0.085000000    -0.377000000    -0.154000000
C     0.305000000    -0.057000000     1.255000000
H     0.905000000    -0.862000000     1.686000000
H     0.846000000     0.868000000     1.467000000
H    -0.560000000    -0.131000000     1.917000000
C     0.837000000    -0.693000000    -1.110000000
H     1.873000000    -0.597000000    -0.795000000
C     0.429000000    -1.091000000    -2.369000000
H     1.179000000    -1.387000000    -3.098000000
C    -0.897000000    -1.054000000    -2.727000000
C    -1.302000000    -1.253000000    -4.122000000
O    -0.502000000    -1.428000000    -4.986000000
O    -2.458000000    -1.113000000    -4.459000000
