17
-94.96247
C    -0.462000000    -1.908000000    -1.934000000
H    -1.267000000    -2.447000000    -2.428000000
C    -0.673000000    -1.102000000    -0.806000000
H    -1.694000000    -0.892000000    -0.498000000
C     0.292000000    -0.425000000    -0.152000000
C    -0.055000000     0.562000000     0.985000000
H     0.059000000     1.616000000     0.722000000
H    -1.106000000     0.573000000     1.279000000
H     0.482000000     0.329000000     1.907000000
C     1.606000000    -0.554000000    -0.577000000
H     2.402000000    -0.010000000    -0.075000000
C     1.879000000    -1.348000000    -1.729000000
H     2.894000000    -1.414000000    -2.112000000
C     0.874000000    -2.013000000    -2.415000000
C     1.224000000    -2.765000000    -3.672000000
O     2.238000000    -2.530000000    -4.369000000
O     0.328000000    -3.414000000    -4.171000000
