17
-93.83869
C    -0.595000000    -1.300000000    -2.618000000
H    -1.271000000    -1.806000000    -3.303000000
C    -0.908000000    -0.812000000    -1.400000000
H    -1.931000000    -0.891000000    -1.041000000
C     0.126000000    -0.291000000    -0.560000000
C    -0.363000000     0.047000000     0.861000000
H    -1.438000000    -0.136000000     0.927000000
H     0.210000000    -0.562000000     1.564000000
H    -0.067000000     1.060000000     1.141000000
C     1.415000000    -0.078000000    -1.005000000
H     2.076000000     0.461000000    -0.331000000
C     1.730000000    -0.575000000    -2.238000000
H     2.703000000    -0.366000000    -2.674000000
C     0.805000000    -1.293000000    -2.982000000
C     1.177000000    -1.821000000    -4.341000000
O     2.051000000    -1.253000000    -4.972000000
O     0.617000000    -2.800000000    -4.729000000
