17
-88.23336
C     0.710000000    -2.187000000     1.748000000
H     1.387000000    -2.527000000     2.528000000
C     0.689000000    -0.802000000     1.354000000
H     1.257000000    -0.063000000     1.914000000
C    -0.040000000    -0.418000000     0.175000000
C     0.021000000     1.101000000    -0.136000000
H    -0.370000000     1.793000000     0.613000000
H     1.063000000     1.384000000    -0.299000000
H    -0.433000000     1.343000000    -1.100000000
C    -0.970000000    -1.248000000    -0.382000000
H    -1.608000000    -0.917000000    -1.198000000
C    -0.998000000    -2.594000000     0.041000000
H    -1.602000000    -3.302000000    -0.519000000
C    -0.156000000    -3.061000000     1.008000000
C    -0.073000000    -4.480000000     1.306000000
O    -0.299000000    -5.304000000     0.426000000
O     0.681000000    -4.783000000     2.252000000
