17
-98.22012
C    -2.182000000    -0.892000000    -1.760000000
H    -3.247000000    -0.756000000    -1.931000000
C    -1.546000000    -0.364000000    -0.659000000
H    -2.101000000     0.266000000     0.031000000
C    -0.146000000    -0.594000000    -0.419000000
C     0.476000000     0.056000000     0.819000000
H     0.897000000    -0.741000000     1.435000000
H     1.195000000     0.836000000     0.559000000
H    -0.294000000     0.511000000     1.446000000
C     0.630000000    -1.360000000    -1.304000000
H     1.688000000    -1.563000000    -1.159000000
C    -0.001000000    -1.907000000    -2.447000000
H     0.506000000    -2.524000000    -3.184000000
C    -1.334000000    -1.666000000    -2.698000000
C    -1.965000000    -2.341000000    -3.831000000
O    -1.298000000    -3.140000000    -4.493000000
O    -3.157000000    -2.184000000    -4.110000000
