17
-99.79692
C    -2.042000000    -1.480000000    -2.720000000
H    -3.057000000    -1.737000000    -3.012000000
C    -1.809000000    -0.900000000    -1.520000000
H    -2.639000000    -0.564000000    -0.903000000
C    -0.497000000    -0.693000000    -1.113000000
C    -0.058000000    -0.111000000     0.210000000
H    -0.460000000    -0.762000000     0.989000000
H     1.033000000    -0.134000000     0.238000000
H    -0.429000000     0.891000000     0.437000000
C     0.523000000    -1.011000000    -2.047000000
H     1.550000000    -0.712000000    -1.857000000
C     0.301000000    -1.663000000    -3.238000000
H     1.094000000    -1.931000000    -3.932000000
C    -1.062000000    -1.989000000    -3.561000000
C    -1.458000000    -2.613000000    -4.870000000
O    -0.536000000    -2.954000000    -5.598000000
O    -2.651000000    -2.621000000    -5.208000000
