17
-97.28901
C    -1.432000000    -0.399000000    -1.767000000
H    -2.388000000    -0.399000000    -2.284000000
C    -1.365000000    -0.082000000    -0.378000000
H    -2.303000000     0.189000000     0.101000000
C    -0.089000000    -0.083000000     0.246000000
C     0.132000000     0.284000000     1.692000000
H     0.164000000    -0.667000000     2.229000000
H     1.007000000     0.916000000     1.859000000
H    -0.742000000     0.824000000     2.062000000
C     0.967000000    -0.368000000    -0.546000000
H     1.961000000    -0.351000000    -0.107000000
C     0.948000000    -0.628000000    -1.950000000
H     1.839000000    -0.886000000    -2.516000000
C    -0.337000000    -0.704000000    -2.568000000
C    -0.492000000    -1.119000000    -3.971000000
O     0.523000000    -1.211000000    -4.673000000
O    -1.592000000    -1.423000000    -4.366000000
