17
-95.32849
C    -1.708000000     0.299000000    -1.646000000
H    -2.655000000     0.731000000    -1.958000000
C    -1.233000000     0.483000000    -0.378000000
H    -1.900000000     1.001000000     0.307000000
C    -0.001000000     0.046000000     0.053000000
C     0.399000000     0.249000000     1.449000000
H     1.286000000     0.886000000     1.478000000
H    -0.339000000     0.740000000     2.086000000
H     0.668000000    -0.690000000     1.937000000
C     0.676000000    -0.689000000    -0.872000000
H     1.603000000    -1.159000000    -0.556000000
C     0.280000000    -0.896000000    -2.176000000
H     0.809000000    -1.535000000    -2.878000000
C    -0.920000000    -0.381000000    -2.572000000
C    -1.387000000    -0.646000000    -4.006000000
O    -0.898000000    -1.476000000    -4.699000000
O    -2.278000000     0.104000000    -4.450000000
