17
-97.61768
C    -0.998000000     0.628000000    -2.041000000
H    -1.750000000     1.217000000    -2.559000000
C    -0.857000000     0.771000000    -0.666000000
H    -1.477000000     1.482000000    -0.125000000
C     0.222000000     0.120000000    -0.036000000
C     0.153000000     0.039000000     1.493000000
H     1.110000000     0.363000000     1.908000000
H    -0.725000000     0.535000000     1.912000000
H     0.062000000    -1.022000000     1.736000000
C     1.131000000    -0.707000000    -0.784000000
H     1.901000000    -1.338000000    -0.348000000
C     0.911000000    -0.802000000    -2.131000000
H     1.532000000    -1.490000000    -2.698000000
C    -0.127000000    -0.158000000    -2.826000000
C    -0.259000000    -0.292000000    -4.306000000
O     0.568000000    -1.016000000    -4.827000000
O    -1.013000000     0.436000000    -4.954000000
