17
-92.73879
C    -0.080000000    -1.871000000     1.853000000
H     0.038000000    -2.233000000     2.872000000
C     0.332000000    -0.552000000     1.604000000
H     0.655000000     0.010000000     2.476000000
C     0.041000000     0.009000000     0.330000000
C     0.296000000     1.445000000     0.019000000
H    -0.630000000     1.781000000    -0.454000000
H     0.481000000     2.156000000     0.827000000
H     1.108000000     1.536000000    -0.706000000
C    -0.599000000    -0.762000000    -0.644000000
H    -0.891000000    -0.351000000    -1.607000000
C    -0.898000000    -2.065000000    -0.383000000
H    -1.423000000    -2.699000000    -1.093000000
C    -0.684000000    -2.624000000     0.843000000
C    -1.183000000    -4.006000000     1.157000000
O    -1.506000000    -4.707000000     0.225000000
O    -0.953000000    -4.522000000     2.227000000
