17
-94.90385
C    -1.576000000     0.210000000    -2.397000000
H    -2.396000000     0.846000000    -2.719000000
C    -1.424000000     0.159000000    -1.035000000
H    -2.157000000     0.668000000    -0.414000000
C    -0.222000000    -0.350000000    -0.486000000
C     0.002000000    -0.372000000     1.024000000
H     0.891000000     0.228000000     1.230000000
H    -0.755000000     0.099000000     1.654000000
H     0.056000000    -1.385000000     1.430000000
C     0.671000000    -1.011000000    -1.313000000
H     1.490000000    -1.562000000    -0.856000000
C     0.469000000    -1.067000000    -2.692000000
H     1.197000000    -1.436000000    -3.410000000
C    -0.655000000    -0.360000000    -3.238000000
C    -0.750000000    -0.075000000    -4.721000000
O     0.064000000    -0.524000000    -5.492000000
O    -1.570000000     0.735000000    -5.100000000
