17
-92.40882
C    -1.993000000     0.401000000    -1.959000000
H    -2.865000000     0.972000000    -2.266000000
C    -1.657000000     0.513000000    -0.625000000
H    -2.380000000     0.986000000     0.035000000
C    -0.531000000    -0.055000000    -0.126000000
C    -0.216000000    -0.029000000     1.334000000
H     0.502000000     0.788000000     1.436000000
H    -1.047000000     0.365000000     1.923000000
H     0.253000000    -0.930000000     1.735000000
C     0.422000000    -0.551000000    -1.062000000
H     1.385000000    -0.925000000    -0.722000000
C     0.139000000    -0.582000000    -2.383000000
H     0.941000000    -0.918000000    -3.036000000
C    -1.108000000    -0.238000000    -2.908000000
C    -1.327000000    -0.125000000    -4.328000000
O    -0.366000000    -0.560000000    -5.029000000
O    -2.418000000     0.223000000    -4.777000000
