17
-84.34422
C    -1.488000000     0.549000000    -2.982000000
H    -2.479000000     0.892000000    -3.269000000
C    -1.305000000     0.393000000    -1.579000000
H    -2.063000000     0.739000000    -0.881000000
C    -0.107000000    -0.053000000    -1.141000000
C     0.177000000    -0.012000000     0.351000000
H    -0.660000000    -0.361000000     0.960000000
H     1.025000000    -0.637000000     0.637000000
H     0.399000000     0.967000000     0.782000000
C     0.865000000    -0.476000000    -1.965000000
H     1.832000000    -0.808000000    -1.594000000
C     0.694000000    -0.421000000    -3.309000000
H     1.489000000    -0.881000000    -3.889000000
C    -0.479000000     0.062000000    -3.845000000
C    -0.674000000     0.108000000    -5.283000000
O     0.233000000    -0.286000000    -6.041000000
O    -1.548000000     0.715000000    -5.836000000
