17
-88.47983
C    -1.216000000     1.215000000    -1.742000000
H    -2.118000000     1.702000000    -2.105000000
C    -1.144000000     0.740000000    -0.513000000
H    -1.963000000     1.096000000     0.106000000
C    -0.047000000     0.108000000    -0.033000000
C    -0.053000000    -0.263000000     1.384000000
H     0.952000000    -0.330000000     1.804000000
H    -0.550000000     0.518000000     1.964000000
H    -0.620000000    -1.178000000     1.567000000
C     0.991000000    -0.138000000    -0.839000000
H     1.958000000    -0.500000000    -0.499000000
C     0.957000000     0.234000000    -2.174000000
H     1.861000000     0.128000000    -2.768000000
C    -0.208000000     0.887000000    -2.671000000
C    -0.360000000     1.285000000    -4.105000000
O     0.528000000     1.011000000    -4.924000000
O    -1.390000000     1.798000000    -4.494000000
