17
-101.86448
C    -2.228000000    -0.884000000    -1.445000000
H    -3.312000000    -0.815000000    -1.474000000
C    -1.472000000    -0.301000000    -0.447000000
H    -1.903000000     0.396000000     0.267000000
C    -0.105000000    -0.656000000    -0.268000000
C     0.742000000    -0.285000000     0.939000000
H     0.848000000     0.797000000     1.043000000
H     0.148000000    -0.597000000     1.801000000
H     1.699000000    -0.809000000     0.893000000
C     0.545000000    -1.391000000    -1.273000000
H     1.612000000    -1.600000000    -1.239000000
C    -0.216000000    -1.805000000    -2.352000000
H     0.273000000    -2.417000000    -3.105000000
C    -1.592000000    -1.608000000    -2.444000000
C    -2.377000000    -2.343000000    -3.497000000
O    -1.696000000    -2.768000000    -4.443000000
O    -3.604000000    -2.478000000    -3.436000000
