17
-93.39381
C    -1.233000000     0.282000000    -2.103000000
H    -2.182000000     0.662000000    -2.473000000
C    -0.992000000     0.257000000    -0.709000000
H    -1.694000000     0.649000000     0.024000000
C     0.249000000    -0.246000000    -0.216000000
C     0.582000000    -0.082000000     1.237000000
H     0.201000000    -0.955000000     1.770000000
H     1.672000000    -0.083000000     1.296000000
H     0.109000000     0.781000000     1.710000000
C     1.177000000    -0.743000000    -1.122000000
H     2.105000000    -1.183000000    -0.765000000
C     0.904000000    -0.726000000    -2.481000000
H     1.702000000    -1.059000000    -3.140000000
C    -0.176000000    -0.060000000    -3.008000000
C    -0.380000000     0.032000000    -4.484000000
O     0.548000000    -0.427000000    -5.172000000
O    -1.196000000     0.718000000    -5.037000000
