17
-99.11807
C    -1.736000000     0.490000000    -1.508000000
H    -2.677000000     1.011000000    -1.660000000
C    -1.149000000     0.419000000    -0.244000000
H    -1.636000000     0.847000000     0.629000000
C     0.045000000    -0.229000000    -0.048000000
C     0.615000000    -0.438000000     1.321000000
H     1.654000000    -0.764000000     1.243000000
H     0.594000000     0.496000000     1.887000000
H     0.067000000    -1.254000000     1.796000000
C     0.579000000    -0.964000000    -1.164000000
H     1.496000000    -1.546000000    -1.121000000
C    -0.024000000    -0.862000000    -2.434000000
H     0.361000000    -1.478000000    -3.242000000
C    -1.179000000    -0.152000000    -2.615000000
C    -1.760000000     0.071000000    -4.019000000
O    -1.211000000    -0.488000000    -4.950000000
O    -2.848000000     0.603000000    -4.169000000
