17
-89.07401
C    -1.402000000    -2.359000000     0.252000000
H    -2.171000000    -2.939000000     0.755000000
C    -1.304000000    -0.976000000     0.428000000
H    -1.978000000    -0.528000000     1.154000000
C    -0.431000000    -0.169000000    -0.299000000
C    -0.472000000     1.278000000     0.065000000
H     0.114000000     1.779000000    -0.708000000
H    -1.465000000     1.731000000     0.027000000
H    -0.107000000     1.412000000     1.085000000
C     0.586000000    -0.729000000    -1.093000000
H     1.376000000    -0.157000000    -1.572000000
C     0.442000000    -2.122000000    -1.271000000
H     1.172000000    -2.647000000    -1.881000000
C    -0.561000000    -2.936000000    -0.709000000
C    -0.468000000    -4.348000000    -0.958000000
O     0.061000000    -4.794000000    -1.965000000
O    -0.893000000    -5.079000000    -0.128000000
