17
-93.83230
C    -0.937000000     1.885000000    -2.218000000
H    -1.482000000     2.807000000    -2.407000000
C    -0.703000000     1.600000000    -0.919000000
H    -0.907000000     2.261000000    -0.081000000
C    -0.075000000     0.387000000    -0.581000000
C     0.271000000     0.169000000     0.852000000
H     1.352000000     0.311000000     0.913000000
H    -0.216000000     0.822000000     1.579000000
H    -0.099000000    -0.834000000     1.079000000
C     0.282000000    -0.497000000    -1.539000000
H     0.813000000    -1.393000000    -1.227000000
C     0.122000000    -0.210000000    -2.911000000
H     0.467000000    -0.766000000    -3.779000000
C    -0.426000000     1.080000000    -3.260000000
C    -0.698000000     1.357000000    -4.745000000
O    -0.719000000     0.447000000    -5.562000000
O    -1.096000000     2.476000000    -5.039000000
