17
-91.28356
C    -0.829000000     1.510000000    -2.041000000
H    -1.218000000     2.444000000    -2.438000000
C    -0.521000000     1.479000000    -0.653000000
H    -0.859000000     2.322000000    -0.055000000
C     0.063000000     0.326000000    -0.098000000
C     0.444000000     0.282000000     1.326000000
H    -0.210000000     0.674000000     2.108000000
H     0.668000000    -0.728000000     1.676000000
H     1.372000000     0.856000000     1.376000000
C     0.318000000    -0.768000000    -0.994000000
H     0.818000000    -1.622000000    -0.545000000
C     0.059000000    -0.705000000    -2.339000000
H     0.185000000    -1.554000000    -3.006000000
C    -0.530000000     0.477000000    -2.889000000
C    -1.021000000     0.453000000    -4.315000000
O    -1.092000000    -0.657000000    -4.835000000
O    -1.709000000     1.338000000    -4.696000000
