17
-83.12052
C    -0.195000000     1.147000000    -2.094000000
H    -0.119000000     2.054000000    -2.687000000
C    -0.102000000     1.202000000    -0.731000000
H    -0.020000000     2.120000000    -0.155000000
C     0.055000000     0.012000000     0.014000000
C     0.182000000    -0.016000000     1.511000000
H     0.291000000    -0.996000000     1.981000000
H     1.051000000     0.566000000     1.826000000
H    -0.633000000     0.434000000     2.082000000
C     0.076000000    -1.257000000    -0.627000000
H     0.090000000    -2.193000000    -0.074000000
C    -0.083000000    -1.259000000    -2.024000000
H    -0.172000000    -2.251000000    -2.458000000
C    -0.132000000    -0.093000000    -2.742000000
C    -0.194000000    -0.182000000    -4.248000000
O    -0.185000000    -1.255000000    -4.750000000
O    -0.417000000     0.734000000    -4.924000000
