17
-98.72604
C    -0.302000000     1.425000000    -1.536000000
H    -0.486000000     2.459000000    -1.816000000
C    -0.159000000     1.112000000    -0.197000000
H    -0.253000000     1.936000000     0.505000000
C     0.265000000    -0.182000000     0.169000000
C     0.347000000    -0.583000000     1.575000000
H     0.133000000     0.254000000     2.243000000
H    -0.426000000    -1.330000000     1.767000000
H     1.259000000    -1.073000000     1.924000000
C     0.538000000    -1.131000000    -0.842000000
H     0.757000000    -2.153000000    -0.541000000
C     0.313000000    -0.849000000    -2.209000000
H     0.523000000    -1.614000000    -2.952000000
C    -0.077000000     0.441000000    -2.532000000
C    -0.307000000     0.813000000    -3.979000000
O    -0.144000000     0.030000000    -4.921000000
O    -0.463000000     1.998000000    -4.258000000
