17
-91.90120
C    -0.196000000     1.052000000    -2.416000000
H    -0.586000000     1.914000000    -2.953000000
C    -0.127000000     1.126000000    -1.053000000
H    -0.420000000     2.061000000    -0.584000000
C     0.283000000     0.021000000    -0.339000000
C     0.428000000     0.107000000     1.173000000
H    -0.241000000     0.785000000     1.706000000
H     0.177000000    -0.866000000     1.601000000
H     1.437000000     0.485000000     1.351000000
C     0.507000000    -1.228000000    -0.960000000
H     0.930000000    -2.044000000    -0.379000000
C     0.552000000    -1.290000000    -2.374000000
H     0.755000000    -2.267000000    -2.804000000
C     0.139000000    -0.085000000    -3.081000000
C    -0.022000000    -0.078000000    -4.586000000
O     0.452000000    -0.925000000    -5.331000000
O    -0.532000000     0.916000000    -5.172000000
