17
-97.52896
C    -0.879000000     1.201000000    -2.082000000
H    -1.211000000     2.169000000    -2.446000000
C    -0.698000000     1.143000000    -0.684000000
H    -0.944000000     2.023000000    -0.097000000
C    -0.223000000    -0.099000000    -0.094000000
C    -0.051000000    -0.190000000     1.406000000
H     0.686000000     0.578000000     1.648000000
H    -0.981000000     0.058000000     1.920000000
H     0.291000000    -1.195000000     1.663000000
C    -0.050000000    -1.195000000    -0.903000000
H     0.152000000    -2.215000000    -0.586000000
C    -0.137000000    -1.077000000    -2.318000000
H     0.102000000    -1.906000000    -2.980000000
C    -0.564000000     0.134000000    -2.885000000
C    -0.676000000     0.257000000    -4.357000000
O    -0.454000000    -0.733000000    -5.049000000
O    -1.155000000     1.256000000    -4.841000000
