17
-92.39068
C    -0.437000000     1.417000000    -2.014000000
H    -0.743000000     2.294000000    -2.578000000
C    -0.247000000     1.441000000    -0.629000000
H    -0.469000000     2.321000000    -0.032000000
C     0.054000000     0.200000000    -0.074000000
C     0.083000000     0.014000000     1.377000000
H     1.056000000    -0.367000000     1.696000000
H    -0.098000000     0.888000000     2.006000000
H    -0.674000000    -0.753000000     1.554000000
C     0.285000000    -0.922000000    -0.865000000
H     0.573000000    -1.855000000    -0.386000000
C     0.203000000    -0.931000000    -2.252000000
H     0.539000000    -1.813000000    -2.791000000
C    -0.123000000     0.298000000    -2.879000000
C    -0.140000000     0.379000000    -4.342000000
O     0.451000000    -0.434000000    -5.023000000
O    -0.655000000     1.330000000    -4.963000000
