17
-97.12978
C    -0.504000000     1.284000000    -2.267000000
H    -0.651000000     2.226000000    -2.788000000
C    -0.369000000     1.375000000    -0.880000000
H    -0.310000000     2.353000000    -0.410000000
C    -0.125000000     0.239000000    -0.119000000
C     0.082000000     0.294000000     1.376000000
H    -0.578000000     1.014000000     1.863000000
H    -0.258000000    -0.641000000     1.827000000
H     1.147000000     0.421000000     1.583000000
C     0.125000000    -0.965000000    -0.777000000
H     0.336000000    -1.854000000    -0.189000000
C     0.003000000    -1.037000000    -2.186000000
H     0.163000000    -1.991000000    -2.682000000
C    -0.409000000     0.063000000    -2.969000000
C    -0.692000000    -0.150000000    -4.467000000
O    -0.252000000    -1.096000000    -5.093000000
O    -1.354000000     0.675000000    -5.130000000
