17
-93.29757
C    -0.787000000     1.210000000    -2.335000000
H    -1.123000000     2.099000000    -2.862000000
C    -0.408000000     1.321000000    -1.026000000
H    -0.557000000     2.261000000    -0.501000000
C     0.127000000     0.220000000    -0.366000000
C     0.478000000     0.229000000     1.132000000
H     1.526000000     0.435000000     1.360000000
H    -0.075000000     1.063000000     1.570000000
H     0.235000000    -0.732000000     1.591000000
C     0.202000000    -0.980000000    -1.075000000
H     0.485000000    -1.855000000    -0.495000000
C    -0.162000000    -1.146000000    -2.431000000
H    -0.230000000    -2.149000000    -2.844000000
C    -0.735000000    -0.001000000    -3.040000000
C    -1.245000000    -0.073000000    -4.473000000
O    -0.889000000    -1.027000000    -5.126000000
O    -1.888000000     0.781000000    -5.074000000
