17
-94.85499
C    -1.476000000    -2.738000000     0.001000000
H    -2.207000000    -3.223000000     0.643000000
C    -1.106000000    -1.402000000     0.224000000
H    -1.448000000    -0.863000000     1.103000000
C    -0.157000000    -0.813000000    -0.615000000
C     0.341000000     0.587000000    -0.388000000
H     0.676000000     0.693000000     0.646000000
H     1.251000000     0.641000000    -0.990000000
H    -0.444000000     1.315000000    -0.606000000
C     0.477000000    -1.657000000    -1.545000000
H     1.342000000    -1.293000000    -2.095000000
C     0.199000000    -3.042000000    -1.694000000
H     0.749000000    -3.729000000    -2.331000000
C    -0.834000000    -3.614000000    -0.868000000
C    -1.068000000    -5.070000000    -0.899000000
O    -0.160000000    -5.758000000    -1.309000000
O    -2.067000000    -5.597000000    -0.409000000
