17
-91.29060
C    -0.170000000     1.217000000    -2.170000000
H    -0.665000000     2.003000000    -2.735000000
C    -0.327000000     1.199000000    -0.803000000
H    -0.583000000     2.126000000    -0.296000000
C     0.160000000     0.076000000    -0.062000000
C     0.043000000    -0.031000000     1.433000000
H    -0.618000000     0.691000000     1.917000000
H    -0.280000000    -1.009000000     1.797000000
H     1.032000000     0.206000000     1.830000000
C     0.870000000    -0.966000000    -0.722000000
H     1.328000000    -1.847000000    -0.280000000
C     1.001000000    -0.864000000    -2.161000000
H     1.498000000    -1.661000000    -2.707000000
C     0.370000000     0.169000000    -2.902000000
C     0.418000000     0.146000000    -4.406000000
O     0.672000000    -0.882000000    -5.010000000
O    -0.021000000     1.063000000    -5.052000000
