17
-97.49685
C    -1.256000000     1.220000000    -2.295000000
H    -1.695000000     2.102000000    -2.753000000
C    -0.795000000     1.207000000    -0.956000000
H    -0.912000000     2.077000000    -0.315000000
C    -0.297000000     0.060000000    -0.356000000
C     0.168000000    -0.013000000     1.135000000
H     0.043000000    -1.066000000     1.394000000
H     1.222000000     0.257000000     1.236000000
H    -0.478000000     0.588000000     1.778000000
C    -0.103000000    -1.053000000    -1.175000000
H     0.381000000    -1.901000000    -0.698000000
C    -0.472000000    -1.023000000    -2.474000000
H    -0.359000000    -2.011000000    -2.914000000
C    -1.056000000     0.087000000    -3.104000000
C    -1.559000000     0.004000000    -4.527000000
O    -1.349000000    -1.046000000    -5.167000000
O    -1.907000000     1.066000000    -5.026000000
