17
-97.41817
C     0.361000000     1.280000000    -2.143000000
H     0.291000000     2.257000000    -2.614000000
C    -0.040000000     1.046000000    -0.863000000
H    -0.494000000     1.882000000    -0.336000000
C     0.003000000    -0.212000000    -0.284000000
C    -0.691000000    -0.438000000     1.058000000
H    -0.441000000     0.321000000     1.802000000
H    -1.772000000    -0.459000000     0.906000000
H    -0.465000000    -1.354000000     1.607000000
C     0.562000000    -1.271000000    -1.006000000
H     0.521000000    -2.307000000    -0.680000000
C     0.987000000    -1.051000000    -2.345000000
H     1.332000000    -1.854000000    -2.991000000
C     0.870000000     0.231000000    -2.879000000
C     1.401000000     0.564000000    -4.261000000
O     1.647000000    -0.425000000    -5.008000000
O     1.215000000     1.672000000    -4.765000000
