17
-97.31751
C    -1.681000000    -2.680000000     0.525000000
H    -2.339000000    -3.216000000     1.204000000
C    -1.488000000    -1.317000000     0.578000000
H    -2.043000000    -0.771000000     1.337000000
C    -0.689000000    -0.628000000    -0.312000000
C    -0.391000000     0.866000000    -0.132000000
H    -0.414000000     1.447000000    -1.056000000
H    -1.097000000     1.248000000     0.608000000
H     0.605000000     0.943000000     0.310000000
C    -0.044000000    -1.403000000    -1.318000000
H     0.674000000    -0.982000000    -2.016000000
C    -0.252000000    -2.812000000    -1.398000000
H     0.138000000    -3.420000000    -2.209000000
C    -1.033000000    -3.454000000    -0.456000000
C    -1.229000000    -4.943000000    -0.502000000
O    -0.871000000    -5.679000000    -1.395000000
O    -1.764000000    -5.522000000     0.480000000
