17
-95.92751
C     0.341000000     1.425000000    -1.713000000
H     0.295000000     2.443000000    -2.091000000
C    -0.045000000     1.275000000    -0.373000000
H    -0.293000000     2.163000000     0.202000000
C    -0.024000000     0.009000000     0.192000000
C    -0.746000000    -0.186000000     1.510000000
H    -0.190000000     0.315000000     2.305000000
H    -1.710000000     0.323000000     1.432000000
H    -0.977000000    -1.241000000     1.672000000
C     0.404000000    -1.101000000    -0.592000000
H     0.233000000    -2.074000000    -0.138000000
C     0.654000000    -0.930000000    -1.957000000
H     0.822000000    -1.827000000    -2.547000000
C     0.783000000     0.393000000    -2.539000000
C     1.218000000     0.441000000    -3.979000000
O     1.777000000    -0.529000000    -4.506000000
O     1.170000000     1.533000000    -4.612000000
