17
-91.41318
C    -1.229000000     1.285000000    -2.266000000
H    -1.520000000     2.293000000    -2.551000000
C    -0.985000000     0.983000000    -0.961000000
H    -0.973000000     1.726000000    -0.168000000
C    -0.657000000    -0.350000000    -0.618000000
C    -0.286000000    -0.641000000     0.809000000
H    -0.240000000    -1.714000000     1.009000000
H     0.743000000    -0.360000000     1.046000000
H    -0.917000000    -0.093000000     1.511000000
C    -0.429000000    -1.272000000    -1.654000000
H     0.192000000    -2.138000000    -1.440000000
C    -0.804000000    -1.006000000    -2.906000000
H    -0.698000000    -1.790000000    -3.650000000
C    -1.180000000     0.297000000    -3.240000000
C    -1.538000000     0.692000000    -4.677000000
O    -1.716000000    -0.215000000    -5.458000000
O    -1.565000000     1.827000000    -5.124000000
