17
-89.83348
C    -0.994000000     1.705000000    -2.149000000
H    -1.525000000     2.601000000    -2.459000000
C    -0.811000000     1.365000000    -0.859000000
H    -1.091000000     2.014000000    -0.033000000
C    -0.424000000     0.090000000    -0.498000000
C    -0.414000000    -0.331000000     0.969000000
H     0.215000000    -1.197000000     1.184000000
H    -0.225000000     0.379000000     1.777000000
H    -1.428000000    -0.673000000     1.186000000
C    -0.138000000    -0.872000000    -1.494000000
H     0.218000000    -1.866000000    -1.235000000
C    -0.387000000    -0.494000000    -2.853000000
H    -0.313000000    -1.203000000    -3.673000000
C    -0.772000000     0.797000000    -3.166000000
C    -0.940000000     1.228000000    -4.622000000
O    -0.702000000     0.537000000    -5.574000000
O    -1.201000000     2.381000000    -4.807000000
