17
-91.02882
C    -0.409000000     2.121000000    -1.963000000
H    -0.700000000     3.162000000    -2.081000000
C    -0.222000000     1.678000000    -0.689000000
H    -0.412000000     2.298000000     0.184000000
C     0.124000000     0.363000000    -0.526000000
C     0.169000000    -0.190000000     0.831000000
H    -0.593000000     0.212000000     1.502000000
H     0.000000000    -1.268000000     0.856000000
H     1.085000000    -0.163000000     1.425000000
C     0.178000000    -0.529000000    -1.663000000
H     0.252000000    -1.601000000    -1.495000000
C    -0.024000000     0.008000000    -2.911000000
H    -0.206000000    -0.672000000    -3.740000000
C    -0.261000000     1.350000000    -3.081000000
C    -0.640000000     1.952000000    -4.450000000
O    -1.037000000     1.213000000    -5.278000000
O    -0.544000000     3.161000000    -4.653000000
