17
-92.61566
C    -0.232000000     1.541000000    -1.828000000
H    -0.510000000     2.574000000    -2.018000000
C    -0.141000000     1.089000000    -0.469000000
H    -0.303000000     1.733000000     0.391000000
C     0.222000000    -0.202000000    -0.274000000
C     0.155000000    -0.705000000     1.126000000
H    -0.810000000    -0.483000000     1.587000000
H     0.377000000    -1.774000000     1.116000000
H     0.805000000    -0.134000000     1.792000000
C     0.365000000    -1.105000000    -1.298000000
H     0.457000000    -2.168000000    -1.087000000
C     0.254000000    -0.687000000    -2.656000000
H     0.315000000    -1.389000000    -3.484000000
C    -0.085000000     0.651000000    -2.905000000
C    -0.090000000     1.188000000    -4.274000000
O    -0.234000000     0.404000000    -5.235000000
O    -0.012000000     2.353000000    -4.424000000
