17
-93.14524
C     0.574000000     2.404000000    -2.204000000
H     0.171000000     3.367000000    -2.507000000
C     0.081000000     1.790000000    -1.046000000
H    -0.641000000     2.264000000    -0.385000000
C     0.553000000     0.617000000    -0.572000000
C    -0.144000000    -0.166000000     0.536000000
H     0.190000000     0.237000000     1.494000000
H    -1.213000000    -0.334000000     0.387000000
H     0.260000000    -1.178000000     0.610000000
C     1.569000000     0.012000000    -1.369000000
H     2.099000000    -0.900000000    -1.105000000
C     2.032000000     0.620000000    -2.500000000
H     2.896000000     0.149000000    -2.962000000
C     1.559000000     1.828000000    -3.013000000
C     2.138000000     2.518000000    -4.243000000
O     2.854000000     1.922000000    -5.049000000
O     1.819000000     3.671000000    -4.481000000
