17
-91.22657
C    -0.139000000     2.296000000    -0.809000000
H    -0.353000000     3.356000000    -0.701000000
C    -0.339000000     1.372000000     0.219000000
H    -0.588000000     1.679000000     1.232000000
C     0.016000000     0.011000000     0.032000000
C    -0.113000000    -0.845000000     1.199000000
H     0.246000000    -0.317000000     2.084000000
H    -1.162000000    -1.116000000     1.339000000
H     0.461000000    -1.770000000     1.118000000
C     0.459000000    -0.453000000    -1.204000000
H     0.685000000    -1.508000000    -1.331000000
C     0.712000000     0.440000000    -2.186000000
H     0.923000000     0.038000000    -3.173000000
C     0.350000000     1.804000000    -2.055000000
C     0.547000000     2.743000000    -3.268000000
O     0.895000000     2.292000000    -4.365000000
O     0.567000000     3.903000000    -3.101000000
