17
-93.46518
C     0.020000000     1.375000000    -2.025000000
H    -0.229000000     2.358000000    -2.417000000
C    -0.150000000     1.119000000    -0.671000000
H    -0.550000000     1.863000000     0.013000000
C     0.125000000    -0.088000000    -0.092000000
C    -0.096000000    -0.345000000     1.354000000
H     0.626000000     0.275000000     1.890000000
H    -1.146000000    -0.239000000     1.633000000
H     0.155000000    -1.385000000     1.571000000
C     0.524000000    -1.096000000    -0.934000000
H     0.693000000    -2.073000000    -0.488000000
C     0.571000000    -0.949000000    -2.323000000
H     0.941000000    -1.719000000    -2.994000000
C     0.336000000     0.379000000    -2.887000000
C     0.500000000     0.618000000    -4.380000000
O     0.908000000    -0.275000000    -5.056000000
O     0.141000000     1.670000000    -4.929000000
