17
-90.58881
C     0.367000000     1.232000000    -2.061000000
H     1.024000000     1.760000000    -2.747000000
C     0.842000000     0.773000000    -0.843000000
H     1.891000000     0.920000000    -0.600000000
C     0.059000000     0.100000000     0.013000000
C     0.586000000    -0.346000000     1.352000000
H     0.050000000    -1.233000000     1.696000000
H     1.630000000    -0.643000000     1.223000000
H     0.455000000     0.407000000     2.131000000
C    -1.290000000     0.049000000    -0.248000000
H    -1.881000000    -0.305000000     0.593000000
C    -1.806000000     0.492000000    -1.474000000
H    -2.877000000     0.414000000    -1.642000000
C    -0.975000000     1.103000000    -2.451000000
C    -1.537000000     1.522000000    -3.789000000
O    -2.621000000     1.144000000    -4.090000000
O    -0.931000000     2.188000000    -4.611000000
