17
-84.95289
C     0.801000000     1.465000000    -1.656000000
H     1.699000000     1.910000000    -2.076000000
C     0.983000000     0.755000000    -0.481000000
H     1.946000000     0.667000000     0.017000000
C    -0.087000000     0.333000000     0.275000000
C    -0.015000000    -0.248000000     1.630000000
H    -0.912000000    -0.703000000     2.055000000
H     0.740000000    -1.037000000     1.674000000
H     0.217000000     0.640000000     2.222000000
C    -1.324000000     0.501000000    -0.229000000
H    -2.177000000     0.191000000     0.370000000
C    -1.565000000     1.200000000    -1.414000000
H    -2.617000000     1.333000000    -1.651000000
C    -0.502000000     1.652000000    -2.186000000
C    -0.696000000     2.387000000    -3.479000000
O    -1.795000000     2.444000000    -3.911000000
O     0.211000000     2.723000000    -4.233000000
