17
-86.68189
C    -1.098000000    -3.295000000     0.670000000
H    -1.689000000    -3.921000000     1.332000000
C    -0.944000000    -1.923000000     0.989000000
H    -1.378000000    -1.461000000     1.872000000
C    -0.374000000    -1.006000000     0.027000000
C    -0.301000000     0.476000000     0.212000000
H     0.654000000     0.694000000     0.693000000
H    -0.527000000     0.943000000    -0.749000000
H    -0.974000000     0.858000000     0.982000000
C     0.184000000    -1.543000000    -1.122000000
H     0.775000000    -0.898000000    -1.767000000
C     0.256000000    -2.910000000    -1.325000000
H     0.839000000    -3.317000000    -2.147000000
C    -0.383000000    -3.803000000    -0.505000000
C    -0.285000000    -5.201000000    -0.775000000
O     0.602000000    -5.568000000    -1.585000000
O    -0.831000000    -5.992000000    -0.085000000
