17
-87.79787
C     0.458000000     0.119000000    -2.512000000
H     1.215000000     0.363000000    -3.253000000
C     0.749000000    -0.008000000    -1.134000000
H     1.761000000     0.201000000    -0.796000000
C    -0.250000000    -0.192000000    -0.209000000
C     0.181000000    -0.335000000     1.259000000
H     1.212000000    -0.667000000     1.403000000
H     0.032000000     0.549000000     1.883000000
H    -0.248000000    -1.261000000     1.648000000
C    -1.514000000    -0.540000000    -0.704000000
H    -2.315000000    -0.689000000     0.015000000
C    -1.824000000    -0.508000000    -2.054000000
H    -2.867000000    -0.675000000    -2.310000000
C    -0.844000000    -0.038000000    -3.015000000
C    -1.200000000     0.182000000    -4.465000000
O    -2.220000000    -0.287000000    -4.881000000
O    -0.451000000     0.724000000    -5.214000000
