17
-85.29643
C     1.149000000     0.754000000    -2.754000000
H     1.851000000     1.446000000    -3.212000000
C     1.311000000     0.385000000    -1.454000000
H     2.180000000     0.730000000    -0.899000000
C     0.349000000    -0.256000000    -0.783000000
C     0.599000000    -0.593000000     0.689000000
H     1.449000000    -0.047000000     1.104000000
H    -0.300000000    -0.407000000     1.280000000
H     0.763000000    -1.663000000     0.834000000
C    -0.936000000    -0.359000000    -1.361000000
H    -1.721000000    -0.782000000    -0.739000000
C    -1.147000000     0.017000000    -2.671000000
H    -2.145000000    -0.010000000    -3.099000000
C    -0.057000000     0.521000000    -3.405000000
C    -0.210000000     1.080000000    -4.820000000
O    -1.217000000     1.000000000    -5.483000000
O     0.657000000     1.737000000    -5.301000000
