17
-94.08352
C     0.998000000     0.063000000    -2.512000000
H     1.702000000     0.353000000    -3.288000000
C     1.273000000    -0.028000000    -1.158000000
H     2.324000000    -0.096000000    -0.890000000
C     0.234000000    -0.083000000    -0.221000000
C     0.576000000    -0.175000000     1.279000000
H     1.471000000    -0.778000000     1.447000000
H     0.501000000     0.730000000     1.886000000
H    -0.114000000    -0.885000000     1.739000000
C    -1.062000000    -0.169000000    -0.636000000
H    -1.814000000    -0.133000000     0.149000000
C    -1.368000000    -0.214000000    -1.971000000
H    -2.380000000    -0.455000000    -2.287000000
C    -0.362000000    -0.106000000    -2.939000000
C    -0.672000000    -0.016000000    -4.425000000
O    -1.819000000    -0.138000000    -4.736000000
O     0.253000000    -0.047000000    -5.262000000
