17
-86.71814
C     0.100000000     0.814000000    -2.785000000
H     0.828000000     1.162000000    -3.514000000
C     0.523000000     0.575000000    -1.457000000
H     1.531000000     0.799000000    -1.118000000
C    -0.376000000     0.028000000    -0.523000000
C     0.136000000    -0.061000000     0.880000000
H     0.063000000     0.919000000     1.357000000
H    -0.476000000    -0.676000000     1.544000000
H     1.182000000    -0.352000000     0.997000000
C    -1.649000000    -0.245000000    -0.854000000
H    -2.346000000    -0.602000000    -0.101000000
C    -2.081000000     0.025000000    -2.159000000
H    -3.127000000    -0.172000000    -2.378000000
C    -1.188000000     0.377000000    -3.187000000
C    -1.663000000     0.393000000    -4.638000000
O    -2.782000000     0.812000000    -4.813000000
O    -0.899000000     0.346000000    -5.515000000
