17
-81.92010
C     0.325000000     1.053000000    -2.278000000
H     0.947000000     1.559000000    -3.011000000
C     0.893000000     0.746000000    -1.058000000
H     1.921000000     1.052000000    -0.884000000
C     0.133000000     0.048000000    -0.141000000
C     0.817000000    -0.372000000     1.148000000
H     0.821000000     0.451000000     1.866000000
H     0.367000000    -1.235000000     1.643000000
H     1.877000000    -0.455000000     0.902000000
C    -1.206000000    -0.209000000    -0.465000000
H    -1.870000000    -0.740000000     0.214000000
C    -1.723000000     0.220000000    -1.602000000
H    -2.748000000     0.084000000    -1.937000000
C    -1.011000000     0.879000000    -2.547000000
C    -1.570000000     1.633000000    -3.734000000
O    -2.756000000     1.650000000    -3.920000000
O    -0.893000000     2.221000000    -4.503000000
