17
-92.00400
C     0.465000000     2.570000000    -1.987000000
H     1.050000000     3.420000000    -2.330000000
C     0.945000000     1.650000000    -1.097000000
H     1.983000000     1.793000000    -0.809000000
C     0.195000000     0.593000000    -0.569000000
C     0.829000000    -0.468000000     0.309000000
H     0.180000000    -0.542000000     1.184000000
H     0.821000000    -1.450000000    -0.170000000
H     1.837000000    -0.360000000     0.714000000
C    -1.157000000     0.491000000    -0.925000000
H    -1.695000000    -0.395000000    -0.596000000
C    -1.749000000     1.559000000    -1.686000000
H    -2.788000000     1.459000000    -1.988000000
C    -0.914000000     2.586000000    -2.227000000
C    -1.538000000     3.643000000    -3.066000000
O    -2.763000000     3.740000000    -3.159000000
O    -0.909000000     4.488000000    -3.659000000
