17
-98.01563
C    -0.006000000     0.738000000    -2.225000000
H     0.510000000     1.328000000    -2.979000000
C     0.606000000     0.382000000    -0.984000000
H     1.668000000     0.608000000    -0.932000000
C    -0.098000000    -0.336000000    -0.055000000
C     0.520000000    -0.728000000     1.260000000
H    -0.185000000    -0.482000000     2.058000000
H     0.874000000    -1.755000000     1.368000000
H     1.417000000    -0.116000000     1.378000000
C    -1.414000000    -0.589000000    -0.296000000
H    -2.021000000    -1.093000000     0.452000000
C    -2.055000000    -0.243000000    -1.458000000
H    -3.077000000    -0.498000000    -1.725000000
C    -1.371000000     0.509000000    -2.439000000
C    -2.200000000     1.107000000    -3.574000000
O    -3.413000000     0.859000000    -3.598000000
O    -1.744000000     1.897000000    -4.404000000
