17
-90.05095
C    -0.208000000     2.460000000    -1.342000000
H     0.223000000     3.383000000    -1.722000000
C     0.457000000     1.631000000    -0.440000000
H     1.407000000     1.983000000    -0.047000000
C    -0.128000000     0.420000000     0.040000000
C     0.725000000    -0.468000000     0.974000000
H     0.081000000    -0.336000000     1.846000000
H     0.784000000    -1.542000000     0.781000000
H     1.593000000     0.087000000     1.336000000
C    -1.452000000     0.099000000    -0.318000000
H    -1.914000000    -0.843000000    -0.035000000
C    -2.163000000     0.948000000    -1.179000000
H    -3.211000000     0.689000000    -1.305000000
C    -1.523000000     2.144000000    -1.723000000
C    -2.389000000     2.982000000    -2.630000000
O    -3.497000000     2.593000000    -2.901000000
O    -1.930000000     3.991000000    -3.152000000
