17
-98.11605
C    -0.341000000     2.006000000    -1.367000000
H     0.287000000     2.615000000    -2.012000000
C     0.352000000     0.953000000    -0.787000000
H     1.435000000     0.865000000    -0.800000000
C    -0.386000000     0.182000000     0.135000000
C     0.336000000    -0.807000000     1.048000000
H     0.955000000    -1.548000000     0.537000000
H     1.001000000    -0.210000000     1.676000000
H    -0.420000000    -1.361000000     1.608000000
C    -1.761000000     0.208000000     0.145000000
H    -2.360000000    -0.445000000     0.775000000
C    -2.427000000     1.186000000    -0.631000000
H    -3.508000000     1.134000000    -0.730000000
C    -1.702000000     2.121000000    -1.369000000
C    -2.485000000     3.079000000    -2.284000000
O    -3.751000000     3.059000000    -2.360000000
O    -1.837000000     3.903000000    -2.920000000
