17
-91.62435
C    -0.434000000     2.288000000    -1.456000000
H     0.151000000     3.005000000    -2.028000000
C     0.302000000     1.294000000    -0.742000000
H     1.364000000     1.342000000    -0.517000000
C    -0.400000000     0.219000000    -0.130000000
C     0.377000000    -0.584000000     0.875000000
H     1.448000000    -0.378000000     0.812000000
H     0.018000000    -0.472000000     1.900000000
H     0.116000000    -1.609000000     0.605000000
C    -1.813000000     0.068000000    -0.410000000
H    -2.357000000    -0.667000000     0.177000000
C    -2.472000000     1.093000000    -1.134000000
H    -3.558000000     1.044000000    -1.168000000
C    -1.821000000     2.190000000    -1.683000000
C    -2.582000000     3.258000000    -2.416000000
O    -3.783000000     3.248000000    -2.343000000
O    -1.977000000     4.258000000    -2.800000000
