17
-85.69649
C    -0.914000000     1.984000000    -1.257000000
H    -0.695000000     2.801000000    -1.940000000
C    -0.005000000     1.048000000    -0.763000000
H     1.026000000     0.982000000    -1.101000000
C    -0.335000000     0.102000000     0.175000000
C     0.816000000    -0.821000000     0.611000000
H     1.792000000    -0.342000000     0.709000000
H     0.586000000    -1.064000000     1.651000000
H     0.784000000    -1.740000000     0.022000000
C    -1.686000000    -0.102000000     0.557000000
H    -1.972000000    -0.908000000     1.228000000
C    -2.633000000     0.719000000    -0.086000000
H    -3.626000000     0.576000000     0.334000000
C    -2.259000000     1.864000000    -0.880000000
C    -3.317000000     2.769000000    -1.494000000
O    -4.491000000     2.551000000    -1.612000000
O    -2.983000000     3.895000000    -1.886000000
