17
-88.06777
C    -0.954000000     2.644000000    -1.685000000
H    -0.749000000     3.429000000    -2.409000000
C    -0.086000000     1.607000000    -1.424000000
H     0.915000000     1.599000000    -1.846000000
C    -0.432000000     0.615000000    -0.553000000
C     0.516000000    -0.467000000    -0.201000000
H     0.148000000    -1.032000000     0.658000000
H     0.282000000    -1.175000000    -0.999000000
H     1.565000000    -0.182000000    -0.097000000
C    -1.677000000     0.682000000     0.029000000
H    -1.926000000    -0.181000000     0.641000000
C    -2.507000000     1.766000000    -0.129000000
H    -3.420000000     1.778000000     0.461000000
C    -2.087000000     2.824000000    -0.955000000
C    -2.894000000     4.081000000    -1.187000000
O    -4.077000000     4.114000000    -0.928000000
O    -2.438000000     4.937000000    -1.904000000
