17
-97.20079
C     0.007000000     2.080000000    -1.485000000
H     0.666000000     2.804000000    -1.957000000
C     0.520000000     1.068000000    -0.654000000
H     1.600000000     1.006000000    -0.543000000
C    -0.318000000     0.163000000     0.049000000
C     0.380000000    -0.834000000     0.951000000
H    -0.224000000    -1.051000000     1.835000000
H     0.658000000    -1.713000000     0.366000000
H     1.307000000    -0.391000000     1.321000000
C    -1.638000000     0.208000000    -0.117000000
H    -2.264000000    -0.546000000     0.353000000
C    -2.206000000     1.104000000    -1.072000000
H    -3.249000000     1.091000000    -1.375000000
C    -1.397000000     2.085000000    -1.742000000
C    -2.002000000     3.060000000    -2.711000000
O    -3.185000000     3.023000000    -3.076000000
O    -1.289000000     3.966000000    -3.083000000
