17
-100.04211
C    -1.013000000     2.635000000    -1.967000000
H    -0.612000000     3.233000000    -2.782000000
C    -0.255000000     1.658000000    -1.388000000
H     0.726000000     1.454000000    -1.809000000
C    -0.836000000     0.831000000    -0.454000000
C     0.099000000    -0.167000000     0.208000000
H     1.125000000    -0.159000000    -0.165000000
H    -0.022000000    -0.007000000     1.281000000
H    -0.294000000    -1.159000000    -0.027000000
C    -2.111000000     1.060000000     0.041000000
H    -2.598000000     0.443000000     0.792000000
C    -2.876000000     2.075000000    -0.526000000
H    -3.917000000     2.190000000    -0.233000000
C    -2.304000000     2.889000000    -1.472000000
C    -3.110000000     4.113000000    -2.019000000
O    -4.107000000     4.469000000    -1.407000000
O    -2.707000000     4.650000000    -3.025000000
