17
-88.70868
C    -0.511000000     1.939000000    -1.290000000
H    -0.201000000     2.624000000    -2.075000000
C     0.255000000     0.903000000    -0.809000000
H     1.293000000     0.935000000    -1.131000000
C    -0.167000000    -0.071000000     0.053000000
C     0.894000000    -0.944000000     0.539000000
H     1.882000000    -0.486000000     0.625000000
H     0.622000000    -1.337000000     1.521000000
H     1.036000000    -1.808000000    -0.112000000
C    -1.487000000    -0.098000000     0.480000000
H    -1.938000000    -0.809000000     1.168000000
C    -2.293000000     0.942000000     0.045000000
H    -3.350000000     0.920000000     0.297000000
C    -1.860000000     1.916000000    -0.832000000
C    -2.770000000     2.969000000    -1.354000000
O    -3.769000000     3.192000000    -0.787000000
O    -2.555000000     3.502000000    -2.441000000
