17
-97.40384
C    -0.611000000     1.892000000    -1.644000000
H    -0.232000000     2.490000000    -2.469000000
C     0.234000000     0.959000000    -1.062000000
H     1.255000000     0.830000000    -1.411000000
C    -0.167000000     0.341000000     0.132000000
C     0.766000000    -0.557000000     0.825000000
H     0.373000000    -0.966000000     1.758000000
H     0.933000000    -1.454000000     0.226000000
H     1.718000000    -0.059000000     1.018000000
C    -1.446000000     0.484000000     0.624000000
H    -1.608000000    -0.027000000     1.569000000
C    -2.364000000     1.294000000    -0.046000000
H    -3.335000000     1.494000000     0.400000000
C    -1.922000000     2.020000000    -1.153000000
C    -2.875000000     3.029000000    -1.723000000
O    -3.969000000     3.263000000    -1.195000000
O    -2.633000000     3.623000000    -2.754000000
