17
-100.30243
C    -0.983000000     1.078000000    -2.478000000
H    -0.809000000     1.309000000    -3.525000000
C    -0.051000000     0.255000000    -1.812000000
H     0.750000000    -0.212000000    -2.379000000
C    -0.123000000     0.077000000    -0.429000000
C     0.990000000    -0.691000000     0.320000000
H     0.753000000    -1.748000000     0.187000000
H     1.956000000    -0.440000000    -0.123000000
H     0.960000000    -0.422000000     1.378000000
C    -1.243000000     0.522000000     0.273000000
H    -1.470000000     0.248000000     1.300000000
C    -2.161000000     1.333000000    -0.389000000
H    -2.962000000     1.766000000     0.204000000
C    -2.067000000     1.646000000    -1.718000000
C    -3.104000000     2.417000000    -2.480000000
O    -4.231000000     2.575000000    -1.991000000
O    -2.879000000     2.816000000    -3.615000000
