17
-88.84890
C    -0.574000000     1.479000000    -1.860000000
H    -0.386000000     1.738000000    -2.898000000
C     0.040000000     0.329000000    -1.286000000
H     0.899000000    -0.089000000    -1.805000000
C    -0.136000000     0.089000000     0.077000000
C     0.723000000    -0.997000000     0.676000000
H     0.651000000    -1.913000000     0.086000000
H     1.751000000    -0.713000000     0.445000000
H     0.679000000    -1.245000000     1.739000000
C    -1.023000000     0.828000000     0.847000000
H    -1.020000000     0.830000000     1.934000000
C    -1.641000000     1.915000000     0.280000000
H    -2.219000000     2.640000000     0.848000000
C    -1.415000000     2.237000000    -1.082000000
C    -2.071000000     3.450000000    -1.689000000
O    -2.842000000     4.135000000    -1.052000000
O    -2.030000000     3.567000000    -2.875000000
