17
-97.05489
C    -1.358000000     1.403000000    -1.836000000
H    -1.573000000     1.473000000    -2.899000000
C    -0.267000000     0.686000000    -1.240000000
H     0.413000000     0.241000000    -1.962000000
C    -0.151000000     0.497000000     0.127000000
C     1.075000000    -0.312000000     0.652000000
H     0.903000000    -0.743000000     1.640000000
H     1.135000000    -1.148000000    -0.048000000
H     1.992000000     0.276000000     0.727000000
C    -1.075000000     1.068000000     0.977000000
H    -1.024000000     0.956000000     2.057000000
C    -2.178000000     1.751000000     0.426000000
H    -2.958000000     2.112000000     1.092000000
C    -2.263000000     2.033000000    -0.946000000
C    -3.368000000     2.935000000    -1.449000000
O    -4.223000000     3.308000000    -0.711000000
O    -3.391000000     3.195000000    -2.652000000
