17
-90.77706
C    -0.930000000     0.913000000    -2.309000000
H    -0.768000000     0.704000000    -3.364000000
C    -0.011000000     0.255000000    -1.448000000
H     0.726000000    -0.390000000    -1.919000000
C    -0.286000000     0.199000000    -0.053000000
C     0.733000000    -0.546000000     0.786000000
H     0.366000000    -0.483000000     1.812000000
H     0.752000000    -1.631000000     0.660000000
H     1.712000000    -0.090000000     0.627000000
C    -1.374000000     0.985000000     0.401000000
H    -1.680000000     1.078000000     1.441000000
C    -2.115000000     1.774000000    -0.428000000
H    -2.845000000     2.515000000    -0.114000000
C    -1.970000000     1.704000000    -1.855000000
C    -2.991000000     2.288000000    -2.790000000
O    -3.803000000     3.119000000    -2.347000000
O    -2.972000000     2.119000000    -3.979000000
