17
-91.74856
C    -0.955000000     1.261000000    -1.994000000
H    -0.740000000     1.570000000    -3.013000000
C    -0.099000000     0.312000000    -1.309000000
H     0.599000000    -0.192000000    -1.973000000
C    -0.207000000    -0.003000000     0.008000000
C     0.850000000    -0.850000000     0.629000000
H     0.527000000    -1.775000000     1.113000000
H     1.576000000    -1.246000000    -0.085000000
H     1.470000000    -0.377000000     1.393000000
C    -1.232000000     0.657000000     0.734000000
H    -1.235000000     0.581000000     1.818000000
C    -2.183000000     1.411000000     0.045000000
H    -2.975000000     1.865000000     0.635000000
C    -2.030000000     1.750000000    -1.281000000
C    -2.920000000     2.794000000    -2.006000000
O    -3.890000000     3.273000000    -1.466000000
O    -2.704000000     3.088000000    -3.144000000
