17
-90.02596
C    -0.495000000     1.679000000    -2.200000000
H    -0.276000000     1.944000000    -3.231000000
C     0.210000000     0.616000000    -1.627000000
H     1.097000000     0.171000000    -2.071000000
C    -0.040000000     0.237000000    -0.308000000
C     0.766000000    -0.819000000     0.385000000
H     0.056000000    -1.595000000     0.677000000
H     1.421000000    -1.242000000    -0.380000000
H     1.304000000    -0.311000000     1.189000000
C    -1.096000000     0.745000000     0.340000000
H    -1.509000000     0.285000000     1.234000000
C    -1.833000000     1.793000000    -0.222000000
H    -2.761000000     2.050000000     0.282000000
C    -1.551000000     2.288000000    -1.499000000
C    -2.452000000     3.240000000    -2.253000000
O    -3.212000000     3.865000000    -1.565000000
O    -2.325000000     3.509000000    -3.428000000
