17
-94.07599
C     0.008000000     1.655000000    -2.025000000
H     0.323000000     1.755000000    -3.060000000
C     0.512000000     0.611000000    -1.265000000
H     1.240000000    -0.128000000    -1.587000000
C     0.026000000     0.390000000     0.002000000
C     0.743000000    -0.600000000     0.923000000
H     1.706000000    -0.195000000     1.240000000
H     0.208000000    -0.738000000     1.866000000
H     0.874000000    -1.601000000     0.506000000
C    -1.036000000     1.142000000     0.502000000
H    -1.261000000     0.995000000     1.555000000
C    -1.573000000     2.152000000    -0.224000000
H    -2.418000000     2.715000000     0.163000000
C    -1.062000000     2.470000000    -1.491000000
C    -1.658000000     3.538000000    -2.369000000
O    -2.314000000     4.431000000    -1.855000000
O    -1.443000000     3.673000000    -3.592000000
