17
-92.40485
C    -0.281000000     1.893000000    -2.010000000
H    -0.009000000     2.120000000    -3.037000000
C     0.265000000     0.853000000    -1.320000000
H     1.049000000     0.229000000    -1.744000000
C    -0.185000000     0.517000000    -0.062000000
C     0.372000000    -0.703000000     0.549000000
H    -0.280000000    -1.544000000     0.302000000
H     1.387000000    -0.904000000     0.200000000
H     0.269000000    -0.525000000     1.622000000
C    -1.121000000     1.337000000     0.569000000
H    -1.477000000     0.957000000     1.523000000
C    -1.539000000     2.474000000    -0.003000000
H    -2.216000000     3.118000000     0.552000000
C    -1.169000000     2.710000000    -1.326000000
C    -1.814000000     3.865000000    -2.035000000
O    -2.717000000     4.515000000    -1.510000000
O    -1.569000000     3.973000000    -3.200000000
