17
-96.55421
C    -0.796000000    -2.935000000    -0.763000000
H    -1.617000000    -3.648000000    -0.748000000
C    -1.079000000    -1.607000000    -0.482000000
H    -2.055000000    -1.292000000    -0.123000000
C    -0.078000000    -0.585000000    -0.679000000
C    -0.564000000     0.853000000    -0.517000000
H     0.185000000     1.502000000    -0.059000000
H    -0.911000000     1.170000000    -1.502000000
H    -1.566000000     0.884000000    -0.083000000
C     1.226000000    -0.991000000    -0.938000000
H     2.064000000    -0.307000000    -1.046000000
C     1.495000000    -2.354000000    -1.150000000
H     2.485000000    -2.716000000    -1.414000000
C     0.525000000    -3.332000000    -1.034000000
C     0.929000000    -4.752000000    -1.188000000
O     2.106000000    -5.054000000    -1.402000000
O     0.121000000    -5.635000000    -0.963000000
