17
-96.15208
C    -1.173000000     2.111000000    -1.751000000
H    -1.162000000     2.652000000    -2.693000000
C    -0.079000000     1.284000000    -1.345000000
H     0.727000000     1.036000000    -2.032000000
C    -0.131000000     0.645000000    -0.101000000
C     0.826000000    -0.347000000     0.261000000
H     1.717000000    -0.282000000    -0.367000000
H     1.356000000    -0.192000000     1.203000000
H     0.359000000    -1.324000000     0.406000000
C    -1.216000000     0.887000000     0.763000000
H    -1.310000000     0.427000000     1.744000000
C    -2.258000000     1.708000000     0.392000000
H    -2.993000000     1.935000000     1.161000000
C    -2.265000000     2.323000000    -0.889000000
C    -3.448000000     3.130000000    -1.330000000
O    -4.419000000     3.265000000    -0.598000000
O    -3.477000000     3.612000000    -2.461000000
