17
-89.01285
C    -0.526000000     2.191000000    -1.588000000
H    -0.219000000     2.657000000    -2.521000000
C     0.035000000     0.967000000    -1.092000000
H     0.761000000     0.504000000    -1.756000000
C    -0.415000000     0.451000000     0.117000000
C     0.079000000    -0.939000000     0.584000000
H     1.072000000    -1.009000000     0.136000000
H     0.169000000    -0.985000000     1.671000000
H    -0.632000000    -1.597000000     0.080000000
C    -1.341000000     1.099000000     0.814000000
H    -1.747000000     0.608000000     1.694000000
C    -1.963000000     2.263000000     0.339000000
H    -2.587000000     2.857000000     1.002000000
C    -1.592000000     2.794000000    -0.868000000
C    -2.215000000     4.107000000    -1.282000000
O    -3.262000000     4.434000000    -0.710000000
O    -1.960000000     4.651000000    -2.354000000
