17
-92.03222
C    -1.003000000     0.457000000    -2.391000000
H    -0.792000000     0.253000000    -3.437000000
C    -0.014000000     0.100000000    -1.467000000
H     0.835000000    -0.422000000    -1.902000000
C    -0.141000000     0.351000000    -0.130000000
C     0.890000000    -0.229000000     0.772000000
H     1.060000000    -1.303000000     0.675000000
H     1.826000000     0.324000000     0.666000000
H     0.545000000    -0.111000000     1.801000000
C    -1.372000000     0.992000000     0.325000000
H    -1.489000000     1.239000000     1.378000000
C    -2.235000000     1.460000000    -0.642000000
H    -3.070000000     2.040000000    -0.257000000
C    -2.093000000     1.228000000    -1.999000000
C    -3.125000000     1.537000000    -3.036000000
O    -4.108000000     2.054000000    -2.645000000
O    -2.988000000     1.120000000    -4.169000000
