17
-87.25848
C    -0.948000000    -0.757000000    -2.346000000
H    -0.845000000    -0.898000000    -3.419000000
C     0.150000000    -0.325000000    -1.553000000
H     1.096000000    -0.112000000    -2.045000000
C     0.090000000    -0.201000000    -0.220000000
C     1.187000000     0.301000000     0.597000000
H     1.959000000    -0.472000000     0.595000000
H     1.574000000     1.185000000     0.087000000
H     0.867000000     0.552000000     1.611000000
C    -1.075000000    -0.528000000     0.411000000
H    -1.184000000    -0.489000000     1.492000000
C    -2.136000000    -1.051000000    -0.332000000
H    -3.032000000    -1.333000000     0.214000000
C    -2.098000000    -1.183000000    -1.722000000
C    -3.289000000    -1.635000000    -2.547000000
O    -4.226000000    -2.157000000    -1.993000000
O    -3.311000000    -1.514000000    -3.707000000
