17
-98.43250
C    -1.090000000     1.484000000    -1.595000000
H    -0.939000000     1.865000000    -2.602000000
C    -0.023000000     0.821000000    -0.993000000
H     0.851000000     0.512000000    -1.559000000
C    -0.186000000     0.351000000     0.317000000
C     1.038000000    -0.338000000     0.973000000
H     1.852000000     0.376000000     1.114000000
H     0.727000000    -0.782000000     1.921000000
H     1.501000000    -1.116000000     0.363000000
C    -1.353000000     0.499000000     1.046000000
H    -1.419000000     0.049000000     2.033000000
C    -2.390000000     1.208000000     0.466000000
H    -3.281000000     1.399000000     1.059000000
C    -2.227000000     1.805000000    -0.817000000
C    -3.320000000     2.695000000    -1.436000000
O    -4.500000000     2.438000000    -1.144000000
O    -3.046000000     3.403000000    -2.370000000
