17
-91.79949
C    -1.467000000     0.962000000    -1.495000000
H    -1.862000000     1.094000000    -2.499000000
C    -0.166000000     0.618000000    -1.197000000
H     0.628000000     0.555000000    -1.937000000
C     0.208000000     0.333000000     0.144000000
C     1.625000000    -0.184000000     0.495000000
H     2.087000000     0.540000000     1.170000000
H     1.668000000    -1.146000000     1.010000000
H     2.178000000    -0.264000000    -0.443000000
C    -0.725000000     0.490000000     1.195000000
H    -0.421000000     0.321000000     2.225000000
C    -2.081000000     0.741000000     0.833000000
H    -2.829000000     0.953000000     1.593000000
C    -2.480000000     1.006000000    -0.504000000
C    -3.989000000     1.371000000    -0.762000000
O    -4.758000000     1.361000000     0.193000000
O    -4.391000000     1.294000000    -1.866000000
