17
-95.97436
C    -2.428000000    -1.318000000    -1.430000000
H    -2.541000000    -1.881000000    -2.353000000
C    -1.133000000    -1.015000000    -0.965000000
H    -0.233000000    -1.354000000    -1.473000000
C    -0.986000000    -0.307000000     0.238000000
C     0.387000000     0.114000000     0.685000000
H     0.588000000     1.113000000     0.292000000
H     0.433000000     0.223000000     1.771000000
H     1.195000000    -0.580000000     0.445000000
C    -2.104000000     0.191000000     0.923000000
H    -1.955000000     0.866000000     1.762000000
C    -3.360000000    -0.199000000     0.552000000
H    -4.223000000     0.040000000     1.168000000
C    -3.524000000    -1.019000000    -0.609000000
C    -4.945000000    -1.178000000    -1.028000000
O    -5.953000000    -0.735000000    -0.443000000
O    -5.087000000    -2.049000000    -1.880000000
