17
-93.93725
C    -1.336000000     1.414000000    -2.022000000
H    -1.520000000     1.557000000    -3.084000000
C    -0.383000000     0.470000000    -1.655000000
H     0.169000000    -0.106000000    -2.393000000
C     0.010000000     0.383000000    -0.358000000
C     1.083000000    -0.616000000     0.084000000
H     1.690000000    -0.192000000     0.887000000
H     0.601000000    -1.501000000     0.504000000
H     1.748000000    -0.956000000    -0.714000000
C    -0.547000000     1.237000000     0.571000000
H    -0.321000000     1.172000000     1.632000000
C    -1.429000000     2.241000000     0.203000000
H    -1.766000000     3.020000000     0.882000000
C    -1.834000000     2.325000000    -1.112000000
C    -2.724000000     3.420000000    -1.544000000
O    -3.262000000     4.129000000    -0.750000000
O    -3.143000000     3.355000000    -2.710000000
