17
-94.66211
C    -2.261000000     1.614000000    -1.294000000
H    -2.784000000     1.881000000    -2.208000000
C    -1.219000000     0.723000000    -1.362000000
H    -0.942000000     0.295000000    -2.322000000
C    -0.485000000     0.421000000    -0.241000000
C     0.544000000    -0.617000000    -0.304000000
H     1.163000000    -0.638000000    -1.204000000
H     1.311000000    -0.249000000     0.380000000
H     0.234000000    -1.619000000     0.001000000
C    -0.732000000     1.000000000     0.951000000
H    -0.061000000     0.812000000     1.785000000
C    -1.882000000     1.819000000     1.020000000
H    -2.230000000     2.248000000     1.956000000
C    -2.726000000     2.074000000    -0.055000000
C    -3.852000000     3.024000000    -0.019000000
O    -4.121000000     3.566000000     1.069000000
O    -4.461000000     3.205000000    -1.065000000
