17
-90.50358
C    -2.081000000     1.641000000    -0.752000000
H    -2.528000000     2.201000000    -1.570000000
C    -0.927000000     0.854000000    -0.973000000
H    -0.701000000     0.806000000    -2.035000000
C    -0.311000000     0.304000000     0.160000000
C     0.980000000    -0.484000000    -0.087000000
H     1.243000000    -1.066000000     0.799000000
H     0.789000000    -1.236000000    -0.855000000
H     1.765000000     0.220000000    -0.371000000
C    -0.763000000     0.515000000     1.384000000
H    -0.371000000     0.162000000     2.334000000
C    -1.872000000     1.301000000     1.579000000
H    -2.170000000     1.437000000     2.615000000
C    -2.584000000     1.866000000     0.550000000
C    -3.754000000     2.714000000     0.821000000
O    -4.211000000     2.751000000     1.946000000
O    -4.267000000     3.292000000    -0.097000000
