17
-93.88084
C    -2.004000000     1.663000000    -0.284000000
H    -2.548000000     2.097000000    -1.119000000
C    -0.865000000     0.901000000    -0.562000000
H    -0.733000000     0.674000000    -1.617000000
C    -0.061000000     0.460000000     0.473000000
C     1.257000000    -0.253000000     0.138000000
H     2.076000000    -0.017000000     0.820000000
H     1.129000000    -1.337000000     0.144000000
H     1.592000000     0.000000000    -0.870000000
C    -0.476000000     0.708000000     1.800000000
H     0.204000000     0.228000000     2.500000000
C    -1.686000000     1.379000000     2.070000000
H    -1.944000000     1.539000000     3.114000000
C    -2.451000000     1.934000000     1.053000000
C    -3.717000000     2.701000000     1.342000000
O    -4.129000000     2.723000000     2.489000000
O    -4.485000000     2.930000000     0.435000000
