17
-98.22827
C    -2.016000000     1.793000000    -0.706000000
H    -2.566000000     2.173000000    -1.563000000
C    -0.890000000     0.996000000    -0.950000000
H    -0.503000000     0.874000000    -1.959000000
C    -0.242000000     0.497000000     0.150000000
C     0.975000000    -0.401000000     0.006000000
H     0.752000000    -1.457000000    -0.161000000
H     1.554000000    -0.199000000    -0.898000000
H     1.638000000    -0.228000000     0.856000000
C    -0.651000000     0.724000000     1.478000000
H    -0.165000000     0.250000000     2.327000000
C    -1.717000000     1.607000000     1.685000000
H    -2.102000000     1.791000000     2.684000000
C    -2.455000000     2.107000000     0.569000000
C    -3.713000000     2.887000000     0.775000000
O    -4.077000000     3.109000000     1.908000000
O    -4.277000000     3.446000000    -0.153000000
