17
-84.94079
C    -1.876000000     1.764000000    -0.961000000
H    -2.018000000     2.412000000    -1.821000000
C    -0.955000000     0.741000000    -1.017000000
H    -0.474000000     0.495000000    -1.960000000
C    -0.570000000     0.163000000     0.129000000
C     0.502000000    -0.846000000     0.064000000
H     1.009000000    -1.168000000     0.976000000
H    -0.134000000    -1.627000000    -0.358000000
H     1.221000000    -0.585000000    -0.715000000
C    -1.136000000     0.444000000     1.370000000
H    -0.842000000    -0.012000000     2.312000000
C    -2.160000000     1.417000000     1.387000000
H    -2.637000000     1.591000000     2.348000000
C    -2.454000000     2.153000000     0.243000000
C    -3.357000000     3.329000000     0.296000000
O    -3.598000000     3.933000000     1.321000000
O    -4.003000000     3.591000000    -0.671000000
