17
-97.53179
C    -2.041000000     1.901000000    -0.754000000
H    -2.299000000     2.536000000    -1.598000000
C    -0.888000000     1.118000000    -0.850000000
H    -0.322000000     1.057000000    -1.777000000
C    -0.361000000     0.481000000     0.257000000
C     0.929000000    -0.317000000     0.006000000
H     1.467000000     0.067000000    -0.863000000
H     1.607000000    -0.462000000     0.849000000
H     0.771000000    -1.375000000    -0.213000000
C    -1.039000000     0.440000000     1.454000000
H    -0.686000000    -0.217000000     2.244000000
C    -2.199000000     1.240000000     1.565000000
H    -2.681000000     1.293000000     2.539000000
C    -2.640000000     2.018000000     0.524000000
C    -3.866000000     2.918000000     0.771000000
O    -4.655000000     2.561000000     1.668000000
O    -4.200000000     3.819000000    -0.002000000
