17
-96.55477
C    -2.050000000     1.436000000    -0.394000000
H    -2.692000000     1.804000000    -1.191000000
C    -0.980000000     0.562000000    -0.632000000
H    -1.005000000     0.229000000    -1.666000000
C    -0.100000000     0.244000000     0.343000000
C     1.085000000    -0.558000000     0.014000000
H     1.183000000    -0.697000000    -1.065000000
H     2.000000000    -0.169000000     0.465000000
H     0.938000000    -1.580000000     0.371000000
C    -0.238000000     0.690000000     1.610000000
H     0.417000000     0.435000000     2.439000000
C    -1.329000000     1.515000000     1.938000000
H    -1.390000000     1.803000000     2.985000000
C    -2.260000000     1.856000000     0.943000000
C    -3.411000000     2.719000000     1.250000000
O    -3.459000000     3.119000000     2.415000000
O    -4.208000000     3.067000000     0.380000000
