17
-93.94124
C    -1.339000000    -2.538000000    -0.244000000
H    -2.207000000    -3.100000000     0.091000000
C    -1.247000000    -1.126000000    -0.151000000
H    -2.059000000    -0.683000000     0.418000000
C    -0.134000000    -0.369000000    -0.494000000
C    -0.153000000     1.129000000    -0.422000000
H    -0.669000000     1.608000000    -1.257000000
H    -0.774000000     1.346000000     0.450000000
H     0.800000000     1.580000000    -0.138000000
C     0.996000000    -1.115000000    -0.892000000
H     1.947000000    -0.699000000    -1.215000000
C     0.884000000    -2.462000000    -1.134000000
H     1.638000000    -2.941000000    -1.753000000
C    -0.250000000    -3.229000000    -0.771000000
C    -0.323000000    -4.738000000    -1.171000000
O     0.642000000    -5.450000000    -1.516000000
O    -1.469000000    -5.290000000    -1.087000000
