17
-94.89421
C    -2.262000000     1.034000000    -0.969000000
H    -2.989000000     0.947000000    -1.772000000
C    -1.063000000     0.358000000    -1.023000000
H    -0.894000000    -0.314000000    -1.860000000
C    -0.152000000     0.400000000    -0.001000000
C     1.110000000    -0.379000000    -0.018000000
H     1.417000000    -0.403000000    -1.066000000
H     1.885000000     0.140000000     0.550000000
H     1.027000000    -1.397000000     0.369000000
C    -0.487000000     1.039000000     1.182000000
H     0.226000000     1.160000000     1.993000000
C    -1.687000000     1.769000000     1.236000000
H    -1.962000000     2.218000000     2.186000000
C    -2.622000000     1.770000000     0.208000000
C    -3.950000000     2.507000000     0.267000000
O    -4.296000000     3.000000000     1.327000000
O    -4.723000000     2.453000000    -0.635000000
