17
-89.16581
C    -1.189000000    -2.872000000    -0.734000000
H    -2.181000000    -3.282000000    -0.909000000
C    -0.966000000    -1.494000000    -0.400000000
H    -1.792000000    -0.789000000    -0.359000000
C     0.333000000    -1.037000000    -0.189000000
C     0.524000000     0.406000000     0.206000000
H     1.098000000     0.897000000    -0.583000000
H    -0.357000000     0.999000000     0.459000000
H     1.146000000     0.479000000     1.101000000
C     1.394000000    -1.894000000    -0.270000000
H     2.418000000    -1.529000000    -0.283000000
C     1.177000000    -3.245000000    -0.573000000
H     2.023000000    -3.896000000    -0.776000000
C    -0.098000000    -3.722000000    -0.647000000
C    -0.287000000    -5.199000000    -0.836000000
O     0.616000000    -5.944000000    -1.076000000
O    -1.347000000    -5.679000000    -0.589000000
