17
-93.46392
C    -2.335000000    -0.085000000     0.613000000
H    -3.040000000    -0.710000000     1.155000000
C    -1.082000000    -0.607000000     0.314000000
H    -0.804000000    -1.606000000     0.641000000
C    -0.203000000     0.168000000    -0.402000000
C     1.156000000    -0.354000000    -0.597000000
H     1.879000000     0.082000000     0.096000000
H     1.282000000    -1.429000000    -0.454000000
H     1.547000000    -0.093000000    -1.582000000
C    -0.470000000     1.504000000    -0.587000000
H     0.202000000     2.281000000    -0.942000000
C    -1.667000000     2.062000000    -0.219000000
H    -1.845000000     3.127000000    -0.344000000
C    -2.651000000     1.208000000     0.341000000
C    -3.903000000     1.902000000     0.794000000
O    -3.971000000     3.098000000     0.885000000
O    -4.784000000     1.160000000     1.347000000
