17
-90.33106
C    -2.773000000     0.351000000     0.385000000
H    -3.621000000    -0.134000000     0.863000000
C    -1.514000000    -0.179000000     0.491000000
H    -1.434000000    -1.082000000     1.091000000
C    -0.456000000     0.363000000    -0.204000000
C     0.952000000    -0.247000000    -0.044000000
H     1.411000000     0.119000000     0.877000000
H     0.860000000    -1.335000000    -0.068000000
H     1.480000000     0.139000000    -0.918000000
C    -0.568000000     1.641000000    -0.734000000
H     0.294000000     2.082000000    -1.228000000
C    -1.868000000     2.189000000    -0.787000000
H    -2.040000000     3.142000000    -1.281000000
C    -2.966000000     1.582000000    -0.279000000
C    -4.322000000     2.199000000    -0.341000000
O    -4.322000000     3.401000000    -0.550000000
O    -5.363000000     1.622000000    -0.326000000
