17
-102.87759
C    -2.839000000    -0.395000000     0.880000000
H    -3.636000000    -1.086000000     1.141000000
C    -1.682000000    -0.791000000     0.179000000
H    -1.567000000    -1.777000000    -0.265000000
C    -0.626000000     0.125000000     0.040000000
C     0.631000000    -0.308000000    -0.732000000
H     0.288000000    -0.791000000    -1.649000000
H     1.319000000     0.524000000    -0.889000000
H     1.255000000    -0.932000000    -0.089000000
C    -0.736000000     1.381000000     0.658000000
H     0.079000000     2.084000000     0.508000000
C    -1.877000000     1.732000000     1.401000000
H    -2.000000000     2.737000000     1.797000000
C    -2.960000000     0.887000000     1.460000000
C    -4.230000000     1.345000000     2.175000000
O    -4.333000000     2.480000000     2.647000000
O    -5.204000000     0.531000000     2.144000000
