17
-88.81109
C    -2.864000000     0.505000000     1.214000000
H    -3.814000000     0.231000000     1.666000000
C    -1.916000000    -0.436000000     0.819000000
H    -2.252000000    -1.467000000     0.891000000
C    -0.693000000     0.009000000     0.204000000
C     0.316000000    -0.890000000    -0.457000000
H     1.288000000    -0.479000000    -0.179000000
H     0.296000000    -1.888000000    -0.014000000
H     0.118000000    -1.019000000    -1.523000000
C    -0.396000000     1.335000000     0.134000000
H     0.478000000     1.759000000    -0.354000000
C    -1.297000000     2.311000000     0.645000000
H    -1.185000000     3.334000000     0.296000000
C    -2.523000000     1.879000000     1.092000000
C    -3.622000000     2.882000000     1.370000000
O    -3.283000000     4.021000000     1.175000000
O    -4.759000000     2.474000000     1.319000000
