17
-93.54341
C    -1.401000000    -2.359000000    -0.120000000
H    -2.377000000    -2.788000000     0.095000000
C    -1.195000000    -1.059000000     0.270000000
H    -1.945000000    -0.556000000     0.874000000
C    -0.056000000    -0.360000000    -0.117000000
C    -0.009000000     1.179000000     0.216000000
H     0.705000000     1.302000000     1.034000000
H     0.242000000     1.786000000    -0.656000000
H    -1.001000000     1.465000000     0.571000000
C     0.918000000    -0.919000000    -0.948000000
H     1.859000000    -0.502000000    -1.296000000
C     0.785000000    -2.320000000    -1.259000000
H     1.585000000    -2.816000000    -1.802000000
C    -0.404000000    -2.997000000    -0.889000000
C    -0.667000000    -4.465000000    -1.218000000
O     0.209000000    -5.136000000    -1.792000000
O    -1.617000000    -5.059000000    -0.782000000
