17
-95.05510
C    -2.661000000    -0.531000000     0.632000000
H    -3.520000000    -1.186000000     0.749000000
C    -1.370000000    -1.030000000     0.415000000
H    -1.220000000    -2.106000000     0.422000000
C    -0.281000000    -0.206000000     0.334000000
C     1.085000000    -0.642000000     0.182000000
H     0.965000000    -1.597000000    -0.335000000
H     1.722000000     0.016000000    -0.412000000
H     1.534000000    -0.882000000     1.148000000
C    -0.462000000     1.203000000     0.396000000
H     0.368000000     1.896000000     0.286000000
C    -1.716000000     1.743000000     0.668000000
H    -1.910000000     2.811000000     0.607000000
C    -2.814000000     0.865000000     0.802000000
C    -4.177000000     1.425000000     1.127000000
O    -4.326000000     2.605000000     1.304000000
O    -5.181000000     0.698000000     0.869000000
