17
-92.45246
C    -2.427000000     1.893000000     1.178000000
H    -3.272000000     1.904000000     1.861000000
C    -1.632000000     0.711000000     1.223000000
H    -1.891000000    -0.063000000     1.941000000
C    -0.549000000     0.656000000     0.326000000
C     0.363000000    -0.530000000     0.417000000
H     1.379000000    -0.284000000     0.102000000
H     0.206000000    -0.965000000     1.406000000
H     0.145000000    -1.276000000    -0.350000000
C    -0.380000000     1.598000000    -0.672000000
H     0.371000000     1.427000000    -1.439000000
C    -1.195000000     2.738000000    -0.646000000
H    -1.032000000     3.534000000    -1.368000000
C    -2.262000000     2.836000000     0.200000000
C    -3.277000000     3.981000000     0.178000000
O    -3.077000000     4.898000000    -0.538000000
O    -4.371000000     3.878000000     0.734000000
