17
-94.47626
C    -2.356000000     0.685000000     1.133000000
H    -3.244000000     0.389000000     1.686000000
C    -1.244000000    -0.151000000     1.169000000
H    -1.308000000    -0.998000000     1.847000000
C    -0.107000000     0.225000000     0.435000000
C     0.964000000    -0.844000000     0.350000000
H     0.573000000    -1.854000000     0.208000000
H     1.665000000    -0.617000000    -0.456000000
H     1.541000000    -0.789000000     1.276000000
C    -0.143000000     1.440000000    -0.298000000
H     0.673000000     1.809000000    -0.913000000
C    -1.282000000     2.195000000    -0.320000000
H    -1.225000000     3.076000000    -0.954000000
C    -2.443000000     1.795000000     0.348000000
C    -3.679000000     2.628000000     0.217000000
O    -3.665000000     3.708000000    -0.317000000
O    -4.763000000     2.049000000     0.381000000
