17
-97.59997
C    -1.587000000    -1.927000000     0.195000000
H    -2.546000000    -2.391000000     0.412000000
C    -1.336000000    -0.534000000     0.410000000
H    -2.146000000     0.111000000     0.744000000
C    -0.131000000     0.109000000    -0.088000000
C     0.064000000     1.587000000    -0.117000000
H     0.091000000     1.956000000    -1.145000000
H    -0.732000000     2.122000000     0.405000000
H     1.013000000     1.797000000     0.381000000
C     0.779000000    -0.683000000    -0.725000000
H     1.753000000    -0.304000000    -1.024000000
C     0.598000000    -2.086000000    -0.832000000
H     1.377000000    -2.695000000    -1.282000000
C    -0.603000000    -2.698000000    -0.429000000
C    -0.807000000    -4.168000000    -0.632000000
O     0.159000000    -4.829000000    -0.934000000
O    -1.891000000    -4.712000000    -0.420000000
