17
-88.91564
C    -3.383000000    -0.048000000     0.001000000
H    -4.234000000    -0.391000000     0.583000000
C    -2.124000000    -0.452000000     0.395000000
H    -2.145000000    -1.240000000     1.143000000
C    -0.999000000     0.028000000    -0.209000000
C     0.343000000    -0.389000000     0.226000000
H     0.646000000     0.306000000     1.012000000
H     0.383000000    -1.388000000     0.666000000
H     1.109000000    -0.224000000    -0.536000000
C    -1.117000000     0.918000000    -1.212000000
H    -0.232000000     1.269000000    -1.737000000
C    -2.353000000     1.365000000    -1.699000000
H    -2.408000000     2.003000000    -2.578000000
C    -3.496000000     0.941000000    -1.038000000
C    -4.901000000     1.339000000    -1.452000000
O    -4.994000000     2.309000000    -2.109000000
O    -5.901000000     0.870000000    -0.920000000
