17
-93.04746
C    -3.085000000     0.542000000     0.597000000
H    -3.725000000     0.491000000     1.474000000
C    -1.873000000    -0.149000000     0.686000000
H    -1.750000000    -0.873000000     1.487000000
C    -0.895000000    -0.059000000    -0.227000000
C     0.374000000    -0.837000000    -0.143000000
H     0.986000000    -0.556000000     0.717000000
H     0.130000000    -1.901000000    -0.148000000
H     0.998000000    -0.700000000    -1.028000000
C    -1.067000000     0.864000000    -1.283000000
H    -0.286000000     1.076000000    -2.009000000
C    -2.229000000     1.561000000    -1.388000000
H    -2.269000000     2.302000000    -2.182000000
C    -3.214000000     1.478000000    -0.398000000
C    -4.397000000     2.521000000    -0.469000000
O    -4.555000000     3.321000000    -1.375000000
O    -5.104000000     2.592000000     0.498000000
