17
-98.50496
C    -3.275000000     0.607000000    -0.222000000
H    -4.262000000     0.280000000     0.094000000
C    -2.177000000    -0.049000000     0.247000000
H    -2.389000000    -0.815000000     0.988000000
C    -0.919000000     0.331000000    -0.174000000
C     0.243000000    -0.432000000     0.315000000
H     0.719000000    -0.851000000    -0.574000000
H     0.918000000     0.208000000     0.888000000
H     0.037000000    -1.326000000     0.907000000
C    -0.738000000     1.320000000    -1.144000000
H     0.239000000     1.581000000    -1.543000000
C    -1.841000000     2.049000000    -1.502000000
H    -1.706000000     2.843000000    -2.232000000
C    -3.102000000     1.672000000    -1.134000000
C    -4.242000000     2.559000000    -1.564000000
O    -4.004000000     3.584000000    -2.167000000
O    -5.403000000     2.206000000    -1.312000000
