17
-89.11257
C    -2.663000000     0.518000000     0.318000000
H    -3.560000000     0.369000000     0.913000000
C    -1.526000000    -0.139000000     0.719000000
H    -1.596000000    -0.727000000     1.630000000
C    -0.355000000     0.131000000     0.061000000
C     0.937000000    -0.649000000     0.265000000
H     0.718000000    -1.710000000     0.130000000
H     1.712000000    -0.393000000    -0.460000000
H     1.273000000    -0.682000000     1.303000000
C    -0.388000000     0.864000000    -1.164000000
H     0.508000000     0.969000000    -1.771000000
C    -1.593000000     1.423000000    -1.599000000
H    -1.702000000     1.895000000    -2.573000000
C    -2.775000000     1.297000000    -0.768000000
C    -3.992000000     2.097000000    -1.077000000
O    -4.109000000     2.647000000    -2.160000000
O    -4.927000000     2.295000000    -0.303000000
