17
-91.55064
C    -2.428000000     1.009000000     0.675000000
H    -3.141000000     1.156000000     1.482000000
C    -1.292000000     0.260000000     0.865000000
H    -1.153000000    -0.203000000     1.839000000
C    -0.368000000     0.075000000    -0.150000000
C     0.835000000    -0.899000000     0.051000000
H     0.731000000    -1.805000000    -0.550000000
H     1.775000000    -0.351000000    -0.036000000
H     0.845000000    -1.254000000     1.084000000
C    -0.581000000     0.794000000    -1.330000000
H     0.159000000     0.805000000    -2.126000000
C    -1.720000000     1.602000000    -1.566000000
H    -1.874000000     2.093000000    -2.524000000
C    -2.582000000     1.697000000    -0.507000000
C    -3.735000000     2.631000000    -0.643000000
O    -4.033000000     3.174000000    -1.736000000
O    -4.172000000     3.118000000     0.358000000
