17
-87.95703
C    -2.692000000     0.343000000    -0.086000000
H    -3.677000000     0.127000000     0.320000000
C    -1.606000000    -0.300000000     0.543000000
H    -1.778000000    -0.817000000     1.483000000
C    -0.324000000    -0.218000000    -0.053000000
C     0.879000000    -0.919000000     0.563000000
H     1.247000000    -0.380000000     1.438000000
H     0.626000000    -1.933000000     0.878000000
H     1.691000000    -1.139000000    -0.133000000
C    -0.106000000     0.468000000    -1.226000000
H     0.889000000     0.548000000    -1.656000000
C    -1.207000000     1.137000000    -1.751000000
H    -1.017000000     1.656000000    -2.688000000
C    -2.502000000     1.091000000    -1.203000000
C    -3.621000000     1.873000000    -1.903000000
O    -3.316000000     2.789000000    -2.650000000
O    -4.655000000     1.964000000    -1.309000000
