17
-94.64860
C    -2.495000000     0.592000000    -0.882000000
H    -3.558000000     0.378000000    -0.801000000
C    -1.578000000     0.007000000    -0.056000000
H    -1.930000000    -0.622000000     0.758000000
C    -0.221000000     0.123000000    -0.334000000
C     0.703000000    -0.460000000     0.632000000
H     1.040000000     0.301000000     1.338000000
H     0.383000000    -1.373000000     1.139000000
H     1.638000000    -0.618000000     0.091000000
C     0.244000000     0.930000000    -1.373000000
H     1.274000000     1.058000000    -1.695000000
C    -0.742000000     1.558000000    -2.170000000
H    -0.356000000     2.303000000    -2.861000000
C    -2.098000000     1.442000000    -1.857000000
C    -3.059000000     2.297000000    -2.692000000
O    -2.694000000     3.065000000    -3.573000000
O    -4.210000000     2.137000000    -2.376000000
