17
-77.35894
C    -2.304000000     0.151000000    -1.363000000
H    -3.280000000    -0.323000000    -1.289000000
C    -1.389000000    -0.107000000    -0.359000000
H    -1.746000000    -0.570000000     0.557000000
C    -0.035000000     0.241000000    -0.475000000
C     0.911000000    -0.138000000     0.612000000
H     0.860000000     0.630000000     1.386000000
H     0.728000000    -1.138000000     1.012000000
H     1.891000000    -0.298000000     0.157000000
C     0.422000000     0.997000000    -1.654000000
H     1.479000000     1.229000000    -1.759000000
C    -0.595000000     1.323000000    -2.563000000
H    -0.395000000     1.857000000    -3.489000000
C    -1.939000000     0.859000000    -2.508000000
C    -2.941000000     1.113000000    -3.582000000
O    -2.806000000     1.962000000    -4.402000000
O    -4.062000000     0.803000000    -3.375000000
