17
-90.92555
C    -2.591000000     0.697000000    -0.704000000
H    -3.637000000     0.617000000    -0.418000000
C    -1.640000000     0.007000000     0.006000000
H    -1.915000000    -0.497000000     0.929000000
C    -0.239000000     0.155000000    -0.247000000
C     0.728000000    -0.440000000     0.720000000
H     0.178000000    -1.119000000     1.375000000
H     1.446000000    -1.113000000     0.247000000
H     1.284000000     0.331000000     1.258000000
C     0.245000000     0.909000000    -1.261000000
H     1.315000000     1.032000000    -1.406000000
C    -0.712000000     1.508000000    -2.086000000
H    -0.340000000     2.040000000    -2.958000000
C    -2.090000000     1.407000000    -1.853000000
C    -3.128000000     2.130000000    -2.705000000
O    -2.750000000     2.920000000    -3.500000000
O    -4.316000000     2.054000000    -2.470000000
