17
-97.08769
C    -2.348000000     0.880000000    -0.671000000
H    -3.374000000     1.053000000    -0.355000000
C    -1.518000000     0.095000000     0.143000000
H    -1.932000000    -0.358000000     1.041000000
C    -0.160000000    -0.025000000    -0.161000000
C     0.722000000    -0.917000000     0.691000000
H     1.472000000    -0.404000000     1.296000000
H     0.089000000    -1.515000000     1.349000000
H     1.212000000    -1.517000000    -0.079000000
C     0.356000000     0.668000000    -1.245000000
H     1.418000000     0.729000000    -1.470000000
C    -0.470000000     1.444000000    -2.092000000
H    -0.098000000     2.088000000    -2.884000000
C    -1.889000000     1.586000000    -1.782000000
C    -2.840000000     2.571000000    -2.540000000
O    -2.340000000     3.322000000    -3.392000000
O    -4.032000000     2.480000000    -2.432000000
