17
-91.97439
C    -2.945000000     0.669000000     0.337000000
H    -3.819000000     0.661000000     0.983000000
C    -1.813000000    -0.039000000     0.760000000
H    -1.871000000    -0.602000000     1.688000000
C    -0.678000000    -0.034000000    -0.030000000
C     0.575000000    -0.880000000     0.271000000
H     0.986000000    -0.625000000     1.250000000
H     0.330000000    -1.944000000     0.264000000
H     1.291000000    -0.838000000    -0.552000000
C    -0.681000000     0.706000000    -1.187000000
H     0.232000000     0.675000000    -1.777000000
C    -1.765000000     1.444000000    -1.633000000
H    -1.678000000     2.117000000    -2.482000000
C    -2.876000000     1.431000000    -0.823000000
C    -4.010000000     2.348000000    -1.113000000
O    -3.768000000     3.409000000    -1.596000000
O    -5.146000000     2.190000000    -0.647000000
