17
-100.06682
C    -2.924000000     0.201000000    -0.531000000
H    -3.845000000    -0.135000000    -0.062000000
C    -1.712000000    -0.264000000    -0.035000000
H    -1.841000000    -0.989000000     0.764000000
C    -0.511000000     0.165000000    -0.613000000
C     0.792000000    -0.485000000    -0.270000000
H     0.595000000    -1.514000000     0.039000000
H     1.534000000    -0.657000000    -1.052000000
H     1.314000000     0.086000000     0.501000000
C    -0.552000000     1.067000000    -1.695000000
H     0.326000000     1.473000000    -2.191000000
C    -1.745000000     1.584000000    -2.138000000
H    -1.750000000     2.318000000    -2.940000000
C    -2.976000000     1.176000000    -1.543000000
C    -4.292000000     1.750000000    -2.047000000
O    -4.263000000     2.723000000    -2.778000000
O    -5.337000000     1.188000000    -1.770000000
