17
-94.67085
C    -2.778000000    -0.020000000     0.146000000
H    -3.689000000    -0.266000000     0.685000000
C    -1.527000000    -0.550000000     0.435000000
H    -1.446000000    -1.364000000     1.150000000
C    -0.387000000    -0.220000000    -0.333000000
C     0.969000000    -0.803000000    -0.026000000
H     1.754000000    -0.584000000    -0.752000000
H     1.357000000    -0.394000000     0.909000000
H     0.802000000    -1.881000000     0.040000000
C    -0.613000000     0.650000000    -1.431000000
H     0.183000000     1.092000000    -2.024000000
C    -1.880000000     1.257000000    -1.666000000
H    -2.066000000     1.963000000    -2.471000000
C    -2.968000000     0.893000000    -0.892000000
C    -4.299000000     1.429000000    -1.323000000
O    -4.480000000     2.319000000    -2.125000000
O    -5.261000000     1.072000000    -0.650000000
