17
-99.12239
C    -2.740000000     0.670000000    -0.218000000
H    -3.732000000     0.663000000     0.225000000
C    -1.649000000     0.040000000     0.408000000
H    -1.812000000    -0.474000000     1.352000000
C    -0.376000000     0.115000000    -0.238000000
C     0.816000000    -0.743000000     0.212000000
H     1.572000000    -0.184000000     0.767000000
H     0.496000000    -1.568000000     0.852000000
H     1.253000000    -1.201000000    -0.678000000
C    -0.229000000     0.924000000    -1.372000000
H     0.766000000     1.111000000    -1.766000000
C    -1.253000000     1.695000000    -1.862000000
H    -1.099000000     2.319000000    -2.739000000
C    -2.560000000     1.604000000    -1.244000000
C    -3.726000000     2.359000000    -1.821000000
O    -3.624000000     3.011000000    -2.853000000
O    -4.769000000     2.249000000    -1.205000000
