17
-88.38845
C    -2.414000000     1.119000000     0.721000000
H    -2.963000000     1.373000000     1.624000000
C    -1.210000000     0.439000000     0.951000000
H    -0.931000000     0.236000000     1.982000000
C    -0.305000000     0.111000000    -0.063000000
C     1.029000000    -0.508000000     0.373000000
H     1.662000000     0.166000000     0.955000000
H     0.920000000    -1.515000000     0.780000000
H     1.650000000    -0.552000000    -0.524000000
C    -0.606000000     0.480000000    -1.372000000
H     0.034000000     0.157000000    -2.188000000
C    -1.910000000     1.073000000    -1.589000000
H    -2.149000000     1.242000000    -2.636000000
C    -2.736000000     1.484000000    -0.599000000
C    -4.076000000     2.151000000    -0.926000000
O    -4.281000000     2.820000000    -1.885000000
O    -4.921000000     2.119000000    -0.064000000
