17
-85.16207
C    -1.620000000    -2.360000000    -1.321000000
H    -2.666000000    -2.465000000    -1.597000000
C    -1.220000000    -1.111000000    -0.955000000
H    -1.923000000    -0.283000000    -1.002000000
C     0.100000000    -0.836000000    -0.610000000
C     0.562000000     0.513000000    -0.108000000
H     1.160000000     0.564000000     0.805000000
H     1.190000000     0.982000000    -0.868000000
H    -0.298000000     1.185000000    -0.063000000
C     1.033000000    -1.918000000    -0.676000000
H     2.081000000    -1.717000000    -0.471000000
C     0.624000000    -3.226000000    -1.024000000
H     1.289000000    -4.086000000    -1.012000000
C    -0.718000000    -3.448000000    -1.364000000
C    -1.143000000    -4.889000000    -1.680000000
O    -0.390000000    -5.759000000    -1.416000000
O    -2.294000000    -5.206000000    -1.775000000
