17
-99.22875
C    -2.511000000     0.435000000     0.248000000
H    -3.324000000     0.303000000     0.958000000
C    -1.211000000     0.091000000     0.627000000
H    -1.011000000    -0.394000000     1.579000000
C    -0.124000000     0.333000000    -0.228000000
C     1.209000000    -0.222000000     0.224000000
H     1.819000000     0.643000000     0.492000000
H     1.062000000    -0.873000000     1.088000000
H     1.650000000    -0.713000000    -0.646000000
C    -0.372000000     0.982000000    -1.439000000
H     0.484000000     1.062000000    -2.104000000
C    -1.683000000     1.476000000    -1.787000000
H    -1.824000000     2.047000000    -2.702000000
C    -2.767000000     1.195000000    -0.889000000
C    -4.140000000     1.706000000    -1.128000000
O    -4.374000000     2.312000000    -2.174000000
O    -5.018000000     1.489000000    -0.305000000
