17
-94.23071
C    -2.553000000     1.244000000     0.094000000
H    -3.309000000     1.426000000     0.854000000
C    -1.416000000     0.443000000     0.459000000
H    -1.445000000    -0.088000000     1.407000000
C    -0.383000000     0.156000000    -0.434000000
C     0.801000000    -0.839000000    -0.209000000
H     0.453000000    -1.867000000    -0.328000000
H     1.561000000    -0.538000000    -0.933000000
H     1.213000000    -0.734000000     0.796000000
C    -0.406000000     0.823000000    -1.661000000
H     0.437000000     0.769000000    -2.345000000
C    -1.502000000     1.641000000    -2.076000000
H    -1.364000000     2.198000000    -3.000000000
C    -2.542000000     1.878000000    -1.159000000
C    -3.692000000     2.783000000    -1.525000000
O    -3.780000000     3.286000000    -2.634000000
O    -4.616000000     2.877000000    -0.759000000
