17
-93.88912
C    -1.832000000    -2.496000000    -0.292000000
H    -2.838000000    -2.822000000    -0.042000000
C    -1.451000000    -1.207000000    -0.007000000
H    -2.188000000    -0.575000000     0.483000000
C    -0.157000000    -0.678000000    -0.297000000
C     0.263000000     0.780000000    -0.050000000
H    -0.315000000     1.005000000     0.848000000
H     1.328000000     1.011000000     0.023000000
H    -0.119000000     1.443000000    -0.829000000
C     0.812000000    -1.613000000    -0.719000000
H     1.853000000    -1.343000000    -0.878000000
C     0.471000000    -2.942000000    -0.931000000
H     1.230000000    -3.670000000    -1.205000000
C    -0.840000000    -3.410000000    -0.717000000
C    -1.213000000    -4.844000000    -0.850000000
O    -0.396000000    -5.722000000    -1.073000000
O    -2.363000000    -5.228000000    -0.678000000
