17
-98.09845
C    -1.883000000     1.494000000     0.927000000
H    -2.620000000     1.676000000     1.705000000
C    -1.010000000     0.397000000     1.038000000
H    -0.956000000    -0.059000000     2.024000000
C    -0.261000000    -0.074000000    -0.010000000
C     0.439000000    -1.369000000     0.101000000
H     0.479000000    -1.992000000    -0.795000000
H     1.505000000    -1.161000000     0.210000000
H     0.150000000    -1.940000000     0.987000000
C    -0.357000000     0.593000000    -1.249000000
H     0.203000000     0.213000000    -2.099000000
C    -1.264000000     1.690000000    -1.392000000
H    -1.371000000     2.100000000    -2.393000000
C    -2.016000000     2.140000000    -0.297000000
C    -2.957000000     3.254000000    -0.495000000
O    -2.949000000     3.855000000    -1.565000000
O    -3.594000000     3.679000000     0.476000000
