17
-96.12929
C    -1.930000000     1.782000000     1.303000000
H    -2.370000000     2.294000000     2.155000000
C    -1.101000000     0.669000000     1.391000000
H    -0.947000000     0.340000000     2.416000000
C    -0.405000000     0.196000000     0.285000000
C     0.494000000    -1.030000000     0.402000000
H     1.508000000    -0.803000000     0.739000000
H     0.066000000    -1.816000000     1.028000000
H     0.534000000    -1.433000000    -0.612000000
C    -0.614000000     0.867000000    -0.902000000
H    -0.009000000     0.549000000    -1.747000000
C    -1.536000000     1.941000000    -1.062000000
H    -1.751000000     2.400000000    -2.023000000
C    -2.156000000     2.437000000     0.067000000
C    -3.035000000     3.694000000    -0.062000000
O    -3.170000000     4.178000000    -1.144000000
O    -3.403000000     4.295000000     0.934000000
