17
-97.07803
C    -2.194000000     1.403000000     0.727000000
H    -3.095000000     1.556000000     1.315000000
C    -1.445000000     0.277000000     0.883000000
H    -1.527000000    -0.426000000     1.708000000
C    -0.398000000     0.093000000     0.052000000
C     0.609000000    -0.943000000     0.343000000
H     0.145000000    -1.673000000     1.009000000
H     0.905000000    -1.518000000    -0.537000000
H     1.509000000    -0.608000000     0.863000000
C    -0.220000000     0.922000000    -1.050000000
H     0.616000000     0.840000000    -1.740000000
C    -1.037000000     2.010000000    -1.251000000
H    -0.985000000     2.618000000    -2.150000000
C    -1.963000000     2.346000000    -0.299000000
C    -2.901000000     3.587000000    -0.477000000
O    -2.871000000     4.194000000    -1.535000000
O    -3.557000000     3.930000000     0.504000000
