17
-96.34898
C    -1.484000000    -2.354000000    -0.405000000
H    -2.476000000    -2.629000000    -0.055000000
C    -1.121000000    -1.004000000    -0.197000000
H    -1.918000000    -0.394000000     0.220000000
C     0.173000000    -0.582000000    -0.466000000
C     0.536000000     0.887000000    -0.167000000
H     0.970000000     1.032000000     0.824000000
H     1.317000000     1.306000000    -0.805000000
H    -0.378000000     1.477000000    -0.262000000
C     1.105000000    -1.507000000    -0.897000000
H     2.165000000    -1.273000000    -0.954000000
C     0.756000000    -2.846000000    -1.203000000
H     1.486000000    -3.590000000    -1.511000000
C    -0.581000000    -3.281000000    -0.947000000
C    -1.040000000    -4.730000000    -1.148000000
O    -0.219000000    -5.564000000    -1.296000000
O    -2.228000000    -5.024000000    -1.013000000
