17
-89.95717
C    -1.487000000     2.401000000    -0.497000000
H    -2.175000000     3.056000000     0.031000000
C    -1.279000000     1.133000000     0.025000000
H    -1.671000000     0.884000000     1.008000000
C    -0.406000000     0.268000000    -0.560000000
C    -0.148000000    -1.094000000     0.071000000
H    -0.496000000    -1.043000000     1.105000000
H    -0.752000000    -1.935000000    -0.277000000
H     0.904000000    -1.382000000     0.008000000
C     0.301000000     0.671000000    -1.684000000
H     0.890000000    -0.036000000    -2.263000000
C     0.130000000     1.908000000    -2.271000000
H     0.741000000     2.154000000    -3.136000000
C    -0.862000000     2.734000000    -1.742000000
C    -1.264000000     4.027000000    -2.455000000
O    -0.740000000     4.294000000    -3.539000000
O    -2.130000000     4.792000000    -2.119000000
