17
-91.63129
C    -1.423000000     2.626000000    -0.103000000
H    -1.992000000     3.317000000     0.513000000
C    -1.202000000     1.403000000     0.538000000
H    -1.553000000     1.284000000     1.560000000
C    -0.479000000     0.384000000    -0.107000000
C    -0.078000000    -0.878000000     0.541000000
H    -0.626000000    -0.936000000     1.484000000
H    -0.522000000    -1.573000000    -0.174000000
H     1.011000000    -0.882000000     0.624000000
C     0.003000000     0.708000000    -1.372000000
H     0.519000000    -0.093000000    -1.896000000
C    -0.227000000     1.952000000    -2.002000000
H     0.331000000     2.197000000    -2.902000000
C    -0.964000000     2.968000000    -1.370000000
C    -1.189000000     4.299000000    -2.009000000
O    -0.588000000     4.682000000    -3.022000000
O    -1.674000000     5.116000000    -1.202000000
