17
-97.28187
C    -0.869000000     2.405000000     0.097000000
H    -1.068000000     3.132000000     0.880000000
C    -0.647000000     1.119000000     0.509000000
H    -0.933000000     0.935000000     1.541000000
C    -0.147000000     0.222000000    -0.424000000
C     0.255000000    -1.174000000     0.060000000
H     0.825000000    -1.755000000    -0.668000000
H     0.922000000    -1.106000000     0.922000000
H    -0.619000000    -1.715000000     0.428000000
C     0.155000000     0.632000000    -1.789000000
H     0.738000000    -0.051000000    -2.401000000
C    -0.153000000     1.972000000    -2.182000000
H     0.008000000     2.305000000    -3.204000000
C    -0.704000000     2.881000000    -1.205000000
C    -1.098000000     4.315000000    -1.572000000
O    -0.974000000     4.632000000    -2.758000000
O    -1.518000000     5.133000000    -0.738000000
