17
-97.27238
C    -2.298000000    -2.164000000    -0.658000000
H    -3.339000000    -2.427000000    -0.492000000
C    -1.811000000    -0.897000000    -0.301000000
H    -2.461000000    -0.203000000     0.227000000
C    -0.467000000    -0.567000000    -0.423000000
C     0.173000000     0.673000000     0.093000000
H     0.538000000     0.585000000     1.118000000
H     1.025000000     1.050000000    -0.477000000
H    -0.558000000     1.480000000     0.017000000
C     0.450000000    -1.426000000    -1.008000000
H     1.500000000    -1.156000000    -1.092000000
C    -0.017000000    -2.722000000    -1.398000000
H     0.711000000    -3.440000000    -1.767000000
C    -1.365000000    -3.111000000    -1.160000000
C    -1.781000000    -4.561000000    -1.383000000
O    -0.934000000    -5.475000000    -1.617000000
O    -2.925000000    -4.891000000    -1.183000000
