17
-90.92585
C    -1.092000000     2.464000000     1.740000000
H    -1.149000000     2.851000000     2.755000000
C    -0.625000000     1.174000000     1.483000000
H    -0.437000000     0.491000000     2.307000000
C    -0.601000000     0.627000000     0.221000000
C    -0.254000000    -0.830000000     0.058000000
H    -0.308000000    -1.407000000     0.984000000
H    -1.049000000    -1.166000000    -0.611000000
H     0.735000000    -1.019000000    -0.365000000
C    -1.153000000     1.335000000    -0.837000000
H    -1.134000000     0.919000000    -1.842000000
C    -1.611000000     2.603000000    -0.634000000
H    -2.106000000     3.141000000    -1.439000000
C    -1.647000000     3.169000000     0.678000000
C    -2.355000000     4.452000000     0.888000000
O    -2.628000000     5.154000000    -0.121000000
O    -2.438000000     5.007000000     1.944000000
