17
-91.67088
C    -1.447000000     1.865000000     0.781000000
H    -1.946000000     2.346000000     1.619000000
C    -1.064000000     0.567000000     0.857000000
H    -1.261000000    -0.016000000     1.753000000
C    -0.348000000    -0.043000000    -0.166000000
C    -0.042000000    -1.451000000    -0.124000000
H     1.026000000    -1.515000000     0.094000000
H    -0.590000000    -2.001000000     0.644000000
H    -0.266000000    -1.841000000    -1.119000000
C     0.056000000     0.715000000    -1.249000000
H     0.694000000     0.270000000    -2.008000000
C    -0.337000000     2.039000000    -1.409000000
H    -0.098000000     2.631000000    -2.289000000
C    -0.995000000     2.643000000    -0.380000000
C    -1.174000000     4.123000000    -0.359000000
O    -0.496000000     4.825000000    -1.086000000
O    -1.883000000     4.662000000     0.456000000
