17
-99.19323
C    -1.650000000     1.520000000     1.007000000
H    -2.266000000     1.571000000     1.901000000
C    -0.902000000     0.349000000     0.823000000
H    -0.919000000    -0.436000000     1.576000000
C    -0.052000000     0.192000000    -0.236000000
C     0.552000000    -1.155000000    -0.457000000
H     1.300000000    -1.282000000     0.329000000
H    -0.195000000    -1.949000000    -0.405000000
H     1.036000000    -1.118000000    -1.435000000
C     0.088000000     1.207000000    -1.167000000
H     0.585000000     1.027000000    -2.117000000
C    -0.740000000     2.335000000    -1.020000000
H    -0.739000000     3.039000000    -1.848000000
C    -1.549000000     2.525000000     0.084000000
C    -2.265000000     3.877000000     0.248000000
O    -1.996000000     4.772000000    -0.569000000
O    -3.000000000     4.126000000     1.219000000
