17
-94.40269
C    -1.223000000     2.048000000     1.620000000
H    -1.447000000     2.428000000     2.614000000
C    -0.708000000     0.761000000     1.469000000
H    -0.497000000     0.081000000     2.291000000
C    -0.394000000     0.321000000     0.145000000
C     0.236000000    -1.050000000     0.173000000
H    -0.357000000    -1.760000000     0.753000000
H     0.366000000    -1.451000000    -0.835000000
H     1.252000000    -1.021000000     0.571000000
C    -0.621000000     1.132000000    -0.959000000
H    -0.277000000     0.714000000    -1.902000000
C    -1.165000000     2.390000000    -0.744000000
H    -1.322000000     2.935000000    -1.671000000
C    -1.422000000     2.905000000     0.568000000
C    -1.791000000     4.351000000     0.722000000
O    -1.867000000     4.993000000    -0.265000000
O    -1.816000000     4.869000000     1.851000000
