17
-95.28444
C    -1.155000000     2.283000000     0.475000000
H    -1.800000000     2.725000000     1.230000000
C    -0.977000000     0.919000000     0.412000000
H    -1.485000000     0.312000000     1.157000000
C    -0.156000000     0.333000000    -0.504000000
C    -0.040000000    -1.154000000    -0.403000000
H    -0.961000000    -1.638000000    -0.734000000
H     0.876000000    -1.515000000    -0.876000000
H     0.020000000    -1.400000000     0.659000000
C     0.437000000     1.061000000    -1.504000000
H     1.008000000     0.610000000    -2.312000000
C     0.225000000     2.444000000    -1.517000000
H     0.644000000     3.015000000    -2.341000000
C    -0.574000000     3.121000000    -0.508000000
C    -0.813000000     4.618000000    -0.531000000
O    -0.523000000     5.327000000    -1.460000000
O    -1.183000000     5.122000000     0.515000000
