17
-97.74552
C    -0.668000000     2.210000000     1.118000000
H    -0.952000000     2.622000000     2.083000000
C    -0.392000000     0.870000000     1.050000000
H    -0.426000000     0.329000000     1.992000000
C    -0.041000000     0.240000000    -0.164000000
C     0.048000000    -1.240000000    -0.179000000
H     0.490000000    -1.553000000    -1.127000000
H     0.617000000    -1.579000000     0.689000000
H    -0.978000000    -1.614000000    -0.153000000
C    -0.027000000     1.022000000    -1.301000000
H     0.221000000     0.589000000    -2.267000000
C    -0.329000000     2.349000000    -1.182000000
H    -0.381000000     2.860000000    -2.140000000
C    -0.647000000     3.017000000     0.014000000
C    -0.888000000     4.490000000     0.021000000
O    -0.631000000     5.146000000    -0.973000000
O    -1.454000000     4.938000000     0.996000000
