17
-85.81997
C    -0.119000000     2.255000000     0.983000000
H    -0.256000000     2.831000000     1.895000000
C     0.046000000     0.824000000     1.028000000
H    -0.300000000     0.308000000     1.920000000
C     0.379000000     0.095000000    -0.102000000
C     0.499000000    -1.390000000    -0.089000000
H     1.415000000    -1.709000000     0.413000000
H    -0.287000000    -1.947000000     0.426000000
H     0.457000000    -1.766000000    -1.113000000
C     0.543000000     0.756000000    -1.284000000
H     0.607000000     0.293000000    -2.266000000
C     0.418000000     2.150000000    -1.367000000
H     0.440000000     2.696000000    -2.307000000
C     0.175000000     2.893000000    -0.234000000
C     0.021000000     4.363000000    -0.180000000
O     0.170000000     4.910000000    -1.207000000
O    -0.489000000     5.006000000     0.754000000
