17
-92.75806
C    -1.260000000     2.213000000     0.632000000
H    -1.820000000     2.577000000     1.490000000
C    -0.828000000     0.924000000     0.698000000
H    -1.036000000     0.255000000     1.528000000
C    -0.129000000     0.416000000    -0.406000000
C     0.317000000    -1.033000000    -0.392000000
H     0.727000000    -1.372000000    -1.345000000
H     0.962000000    -1.275000000     0.456000000
H    -0.628000000    -1.546000000    -0.202000000
C     0.091000000     1.182000000    -1.552000000
H     0.635000000     0.815000000    -2.419000000
C    -0.390000000     2.458000000    -1.624000000
H    -0.246000000     2.950000000    -2.583000000
C    -1.056000000     3.029000000    -0.540000000
C    -1.537000000     4.498000000    -0.620000000
O    -1.690000000     5.099000000    -1.661000000
O    -1.909000000     5.104000000     0.382000000
