17
-82.30581
C    -1.529000000     2.198000000     0.897000000
H    -1.817000000     2.681000000     1.827000000
C    -1.014000000     0.916000000     0.981000000
H    -1.044000000     0.332000000     1.897000000
C    -0.331000000     0.437000000    -0.140000000
C     0.294000000    -0.964000000    -0.037000000
H     0.816000000    -1.238000000    -0.956000000
H     0.976000000    -1.179000000     0.788000000
H    -0.614000000    -1.494000000     0.259000000
C    -0.236000000     1.240000000    -1.302000000
H     0.353000000     0.917000000    -2.157000000
C    -0.721000000     2.518000000    -1.314000000
H    -0.614000000     3.112000000    -2.218000000
C    -1.411000000     2.987000000    -0.258000000
C    -1.908000000     4.425000000    -0.255000000
O    -1.756000000     5.092000000    -1.203000000
O    -2.337000000     5.010000000     0.736000000
