17
-85.39104
C    -1.156000000     1.869000000     1.140000000
H    -1.630000000     2.285000000     2.026000000
C    -0.805000000     0.476000000     1.188000000
H    -0.989000000    -0.194000000     2.024000000
C    -0.282000000    -0.114000000     0.016000000
C     0.048000000    -1.599000000    -0.039000000
H     0.873000000    -1.764000000    -0.735000000
H     0.353000000    -2.002000000     0.929000000
H    -0.901000000    -2.104000000    -0.231000000
C     0.032000000     0.633000000    -1.059000000
H     0.460000000     0.150000000    -1.934000000
C    -0.281000000     1.999000000    -1.105000000
H     0.029000000     2.551000000    -1.989000000
C    -0.977000000     2.628000000    -0.019000000
C    -1.580000000     3.980000000    -0.115000000
O    -1.479000000     4.606000000    -1.126000000
O    -1.728000000     4.633000000     0.920000000
