17
-89.47613
C    -2.347000000    -1.966000000     0.069000000
H    -3.255000000    -2.031000000     0.663000000
C    -1.560000000    -0.884000000     0.300000000
H    -1.835000000    -0.105000000     1.007000000
C    -0.448000000    -0.575000000    -0.458000000
C     0.282000000     0.763000000    -0.341000000
H     1.354000000     0.577000000    -0.258000000
H     0.174000000     1.359000000    -1.251000000
H    -0.114000000     1.341000000     0.497000000
C    -0.156000000    -1.449000000    -1.467000000
H     0.760000000    -1.303000000    -2.034000000
C    -0.916000000    -2.578000000    -1.797000000
H    -0.542000000    -3.334000000    -2.482000000
C    -2.031000000    -2.883000000    -0.948000000
C    -2.825000000    -4.114000000    -1.129000000
O    -2.409000000    -4.945000000    -1.934000000
O    -3.544000000    -4.487000000    -0.214000000
