17
-94.98479
C    -0.318000000     1.269000000     2.196000000
H    -0.376000000     1.369000000     3.277000000
C    -0.215000000     0.078000000     1.533000000
H    -0.277000000    -0.881000000     2.041000000
C    -0.110000000    -0.018000000     0.119000000
C    -0.049000000    -1.343000000    -0.517000000
H    -0.994000000    -1.603000000    -0.997000000
H     0.606000000    -1.394000000    -1.389000000
H     0.259000000    -2.188000000     0.103000000
C     0.047000000     1.213000000    -0.536000000
H     0.083000000     1.336000000    -1.615000000
C    -0.156000000     2.451000000     0.133000000
H    -0.221000000     3.383000000    -0.422000000
C    -0.316000000     2.499000000     1.519000000
C    -0.774000000     3.744000000     2.259000000
O    -1.245000000     4.701000000     1.685000000
O    -0.571000000     3.844000000     3.464000000
