17
-96.74239
C     0.075000000     1.021000000     2.007000000
H     0.090000000     0.877000000     3.084000000
C    -0.431000000    -0.018000000     1.185000000
H    -1.063000000    -0.803000000     1.590000000
C    -0.057000000    -0.027000000    -0.137000000
C    -0.485000000    -1.159000000    -1.046000000
H    -1.236000000    -0.895000000    -1.794000000
H     0.357000000    -1.576000000    -1.603000000
H    -0.914000000    -1.883000000    -0.349000000
C     0.592000000     1.053000000    -0.733000000
H     0.780000000     0.956000000    -1.800000000
C     1.028000000     2.143000000     0.020000000
H     1.647000000     2.937000000    -0.389000000
C     0.817000000     2.043000000     1.409000000
C     1.256000000     3.202000000     2.281000000
O     1.683000000     4.237000000     1.817000000
O     1.117000000     3.119000000     3.508000000
