17
-96.57059
C     1.853000000     1.384000000     2.010000000
H     2.108000000     1.421000000     3.066000000
C     0.891000000     0.442000000     1.624000000
H     0.414000000    -0.139000000     2.409000000
C     0.518000000     0.253000000     0.271000000
C    -0.395000000    -0.811000000    -0.153000000
H     0.092000000    -1.387000000    -0.943000000
H    -0.731000000    -1.557000000     0.571000000
H    -1.256000000    -0.300000000    -0.588000000
C     1.204000000     1.059000000    -0.650000000
H     0.925000000     0.937000000    -1.693000000
C     2.182000000     1.957000000    -0.223000000
H     2.709000000     2.608000000    -0.916000000
C     2.518000000     2.168000000     1.119000000
C     3.526000000     3.230000000     1.553000000
O     4.051000000     3.960000000     0.746000000
O     3.861000000     3.308000000     2.711000000
