17
-94.71436
C     1.420000000     0.946000000     2.600000000
H     1.560000000     0.941000000     3.678000000
C     0.604000000    -0.008000000     2.002000000
H     0.190000000    -0.778000000     2.648000000
C     0.476000000    -0.014000000     0.650000000
C    -0.592000000    -0.915000000    -0.003000000
H    -1.443000000    -0.247000000    -0.155000000
H    -0.109000000    -1.326000000    -0.892000000
H    -0.779000000    -1.741000000     0.686000000
C     1.178000000     0.913000000    -0.139000000
H     0.967000000     0.847000000    -1.204000000
C     2.010000000     1.936000000     0.434000000
H     2.507000000     2.698000000    -0.160000000
C     2.152000000     1.910000000     1.857000000
C     3.027000000     2.952000000     2.493000000
O     3.613000000     3.805000000     1.795000000
O     3.177000000     3.004000000     3.686000000
