17
-96.15635
C     1.211000000     1.356000000     2.550000000
H     1.034000000     1.536000000     3.607000000
C     0.545000000     0.352000000     1.824000000
H    -0.208000000    -0.254000000     2.322000000
C     0.737000000     0.059000000     0.495000000
C    -0.032000000    -1.009000000    -0.124000000
H    -0.781000000    -0.640000000    -0.828000000
H     0.598000000    -1.735000000    -0.642000000
H    -0.493000000    -1.690000000     0.594000000
C     1.654000000     0.824000000    -0.254000000
H     1.721000000     0.552000000    -1.304000000
C     2.296000000     1.855000000     0.355000000
H     2.988000000     2.492000000    -0.189000000
C     2.124000000     2.119000000     1.768000000
C     2.917000000     3.220000000     2.357000000
O     3.605000000     3.936000000     1.651000000
O     2.830000000     3.476000000     3.552000000
