17
-92.15999
C    -2.026000000    -1.834000000     0.911000000
H    -2.687000000    -2.263000000     1.660000000
C    -1.585000000    -0.525000000     0.972000000
H    -1.815000000     0.136000000     1.804000000
C    -0.627000000    -0.113000000     0.056000000
C     0.141000000     1.161000000     0.216000000
H    -0.477000000     2.061000000     0.187000000
H     0.556000000     1.322000000     1.213000000
H     0.894000000     1.268000000    -0.567000000
C    -0.262000000    -0.963000000    -0.980000000
H     0.447000000    -0.626000000    -1.732000000
C    -0.834000000    -2.222000000    -1.076000000
H    -0.579000000    -2.742000000    -1.996000000
C    -1.656000000    -2.698000000    -0.110000000
C    -2.364000000    -4.025000000    -0.219000000
O    -1.975000000    -4.807000000    -1.062000000
O    -3.202000000    -4.429000000     0.552000000
