17
-100.41847
C     1.179000000     0.263000000     2.593000000
H     1.389000000    -0.160000000     3.572000000
C     0.307000000    -0.346000000     1.730000000
H    -0.259000000    -1.224000000     2.030000000
C     0.174000000     0.110000000     0.420000000
C    -0.779000000    -0.533000000    -0.566000000
H    -0.571000000    -0.158000000    -1.570000000
H    -0.694000000    -1.621000000    -0.519000000
H    -1.817000000    -0.282000000    -0.334000000
C     0.858000000     1.248000000     0.090000000
H     0.647000000     1.795000000    -0.825000000
C     1.838000000     1.812000000     0.911000000
H     2.322000000     2.715000000     0.548000000
C     1.967000000     1.374000000     2.232000000
C     2.835000000     1.974000000     3.305000000
O     3.566000000     2.938000000     2.987000000
O     2.792000000     1.557000000     4.440000000
