17
-94.26131
C     1.242000000    -0.068000000     2.872000000
H     0.998000000     0.013000000     3.928000000
C     0.336000000    -0.549000000     1.944000000
H    -0.590000000    -1.067000000     2.180000000
C     0.626000000    -0.389000000     0.548000000
C    -0.316000000    -0.889000000    -0.481000000
H    -0.935000000    -1.749000000    -0.216000000
H    -0.993000000    -0.104000000    -0.824000000
H     0.269000000    -1.223000000    -1.340000000
C     1.778000000     0.270000000     0.125000000
H     2.046000000     0.454000000    -0.913000000
C     2.632000000     0.705000000     1.127000000
H     3.471000000     1.343000000     0.863000000
C     2.457000000     0.480000000     2.497000000
C     3.286000000     1.137000000     3.616000000
O     4.302000000     1.722000000     3.319000000
O     2.974000000     1.138000000     4.794000000
