17
-98.67646
C     2.307000000    -0.004000000     2.388000000
H     2.593000000    -0.430000000     3.347000000
C     1.241000000    -0.554000000     1.621000000
H     0.612000000    -1.308000000     2.087000000
C     0.993000000    -0.113000000     0.325000000
C    -0.231000000    -0.588000000    -0.380000000
H    -0.638000000    -1.544000000    -0.045000000
H    -1.047000000     0.134000000    -0.455000000
H     0.068000000    -0.849000000    -1.398000000
C     1.736000000     0.969000000    -0.146000000
H     1.418000000     1.497000000    -1.041000000
C     2.790000000     1.513000000     0.630000000
H     3.396000000     2.365000000     0.334000000
C     3.135000000     1.025000000     1.901000000
C     4.314000000     1.594000000     2.671000000
O     4.946000000     2.529000000     2.148000000
O     4.776000000     1.105000000     3.728000000
