17
-93.66445
C     2.352000000     1.089000000     2.672000000
H     2.433000000     1.013000000     3.753000000
C     1.200000000     0.614000000     2.091000000
H     0.434000000     0.174000000     2.725000000
C     1.004000000     0.729000000     0.745000000
C    -0.300000000     0.186000000     0.217000000
H    -0.495000000     0.464000000    -0.821000000
H    -0.232000000    -0.899000000     0.119000000
H    -1.137000000     0.488000000     0.850000000
C     1.815000000     1.430000000    -0.090000000
H     1.541000000     1.613000000    -1.126000000
C     3.058000000     1.776000000     0.445000000
H     3.832000000     2.209000000    -0.182000000
C     3.368000000     1.579000000     1.812000000
C     4.748000000     2.051000000     2.350000000
O     5.368000000     2.805000000     1.628000000
O     4.919000000     2.029000000     3.566000000
