17
-92.90755
C     1.086000000     0.635000000     1.825000000
H     1.329000000     0.467000000     2.871000000
C     0.206000000    -0.191000000     1.154000000
H    -0.146000000    -1.106000000     1.624000000
C    -0.110000000    -0.012000000    -0.161000000
C    -1.098000000    -0.966000000    -0.831000000
H    -0.971000000    -1.973000000    -0.428000000
H    -2.124000000    -0.705000000    -0.562000000
H    -1.019000000    -0.922000000    -1.920000000
C     0.434000000     1.108000000    -0.781000000
H     0.255000000     1.331000000    -1.830000000
C     1.190000000     2.078000000    -0.081000000
H     1.559000000     2.914000000    -0.670000000
C     1.518000000     1.844000000     1.256000000
C     2.381000000     2.794000000     2.003000000
O     3.095000000     3.570000000     1.435000000
O     2.305000000     2.933000000     3.223000000
