17
-92.57412
C    -2.359000000    -1.648000000     0.290000000
H    -3.296000000    -2.000000000     0.714000000
C    -1.708000000    -0.465000000     0.634000000
H    -2.153000000     0.141000000     1.420000000
C    -0.425000000    -0.173000000     0.011000000
C     0.242000000     1.068000000     0.323000000
H     1.040000000     0.817000000     1.026000000
H     0.685000000     1.533000000    -0.560000000
H    -0.438000000     1.802000000     0.759000000
C     0.029000000    -1.127000000    -0.865000000
H     0.977000000    -0.905000000    -1.348000000
C    -0.628000000    -2.277000000    -1.169000000
H    -0.304000000    -3.006000000    -1.907000000
C    -1.884000000    -2.551000000    -0.607000000
C    -2.546000000    -3.821000000    -0.843000000
O    -2.116000000    -4.573000000    -1.741000000
O    -3.408000000    -4.246000000    -0.091000000
