17
-92.94906
C     1.604000000     0.230000000     1.831000000
H     1.919000000    -0.106000000     2.815000000
C     0.557000000    -0.396000000     1.216000000
H     0.046000000    -1.149000000     1.812000000
C     0.148000000     0.115000000    -0.016000000
C    -1.115000000    -0.421000000    -0.585000000
H    -0.950000000    -1.431000000    -0.966000000
H    -1.837000000    -0.530000000     0.227000000
H    -1.615000000     0.169000000    -1.356000000
C     0.811000000     1.073000000    -0.738000000
H     0.407000000     1.427000000    -1.683000000
C     1.972000000     1.622000000    -0.127000000
H     2.472000000     2.413000000    -0.680000000
C     2.332000000     1.255000000     1.196000000
C     3.414000000     1.991000000     1.970000000
O     3.840000000     3.036000000     1.532000000
O     3.621000000     1.667000000     3.091000000
