17
-96.93165
C     2.219000000     0.229000000     1.665000000
H     2.708000000    -0.211000000     2.530000000
C     1.085000000    -0.370000000     1.114000000
H     0.797000000    -1.369000000     1.430000000
C     0.484000000     0.184000000     0.002000000
C    -0.777000000    -0.466000000    -0.548000000
H    -1.018000000    -1.293000000     0.123000000
H    -1.651000000     0.157000000    -0.344000000
H    -0.661000000    -0.796000000    -1.582000000
C     0.870000000     1.353000000    -0.522000000
H     0.361000000     1.742000000    -1.401000000
C     2.049000000     2.000000000     0.007000000
H     2.412000000     2.959000000    -0.352000000
C     2.649000000     1.421000000     1.137000000
C     3.841000000     2.135000000     1.788000000
O     4.156000000     3.235000000     1.367000000
O     4.442000000     1.619000000     2.711000000
