17
-92.63464
C     0.768000000     0.579000000     2.519000000
H     0.793000000     0.128000000     3.508000000
C    -0.021000000    -0.117000000     1.563000000
H    -0.462000000    -1.062000000     1.867000000
C    -0.186000000     0.363000000     0.312000000
C    -0.817000000    -0.485000000    -0.738000000
H    -0.566000000    -0.095000000    -1.727000000
H    -0.451000000    -1.512000000    -0.793000000
H    -1.894000000    -0.513000000    -0.560000000
C     0.501000000     1.564000000    -0.013000000
H     0.444000000     2.025000000    -0.996000000
C     1.129000000     2.411000000     0.959000000
H     1.536000000     3.410000000     0.826000000
C     1.361000000     1.860000000     2.258000000
C     2.056000000     2.669000000     3.290000000
O     2.621000000     3.697000000     2.974000000
O     2.002000000     2.352000000     4.472000000
