17
-88.74064
C     2.851000000     0.300000000     2.249000000
H     3.725000000    -0.237000000     2.610000000
C     1.849000000    -0.268000000     1.492000000
H     1.836000000    -1.303000000     1.160000000
C     0.755000000     0.508000000     1.137000000
C    -0.293000000    -0.048000000     0.230000000
H    -0.278000000    -1.140000000     0.235000000
H    -1.295000000     0.259000000     0.536000000
H    -0.217000000     0.226000000    -0.824000000
C     0.652000000     1.831000000     1.509000000
H    -0.041000000     2.515000000     1.027000000
C     1.667000000     2.404000000     2.211000000
H     1.622000000     3.462000000     2.453000000
C     2.734000000     1.644000000     2.669000000
C     3.748000000     2.237000000     3.635000000
O     3.578000000     3.388000000     4.047000000
O     4.428000000     1.536000000     4.296000000
