17
-100.05884
C     2.564000000    -0.257000000     1.273000000
H     3.468000000    -0.853000000     1.366000000
C     1.524000000    -0.664000000     0.355000000
H     1.673000000    -1.579000000    -0.211000000
C     0.334000000     0.103000000     0.264000000
C    -0.798000000    -0.363000000    -0.668000000
H    -0.568000000    -0.280000000    -1.732000000
H    -0.972000000    -1.433000000    -0.538000000
H    -1.739000000     0.159000000    -0.485000000
C     0.147000000     1.249000000     1.049000000
H    -0.786000000     1.804000000     0.985000000
C     1.135000000     1.590000000     2.016000000
H     0.921000000     2.443000000     2.655000000
C     2.316000000     0.876000000     2.138000000
C     3.326000000     1.189000000     3.182000000
O     2.928000000     1.845000000     4.154000000
O     4.446000000     0.752000000     3.105000000
