17
-97.04057
C     2.187000000     1.778000000    -0.034000000
H     3.270000000     1.810000000     0.052000000
C     1.541000000     0.596000000    -0.459000000
H     2.177000000    -0.278000000    -0.572000000
C     0.202000000     0.451000000    -0.594000000
C    -0.470000000    -0.797000000    -0.981000000
H     0.252000000    -1.573000000    -1.244000000
H    -1.031000000    -1.253000000    -0.162000000
H    -1.067000000    -0.535000000    -1.856000000
C    -0.564000000     1.574000000    -0.262000000
H    -1.649000000     1.555000000    -0.329000000
C    -0.011000000     2.752000000     0.271000000
H    -0.644000000     3.565000000     0.616000000
C     1.386000000     2.883000000     0.350000000
C     1.911000000     4.242000000     0.801000000
O     1.171000000     5.208000000     0.792000000
O     3.092000000     4.352000000     0.996000000
