17
-85.05663
C     2.426000000     1.697000000    -0.136000000
H     3.513000000     1.697000000    -0.139000000
C     1.761000000     0.459000000    -0.026000000
H     2.426000000    -0.396000000     0.061000000
C     0.360000000     0.364000000    -0.109000000
C    -0.344000000    -0.941000000    -0.161000000
H    -0.369000000    -1.233000000    -1.213000000
H     0.134000000    -1.776000000     0.356000000
H    -1.407000000    -0.898000000     0.082000000
C    -0.308000000     1.604000000    -0.287000000
H    -1.386000000     1.623000000    -0.423000000
C     0.322000000     2.892000000    -0.286000000
H    -0.279000000     3.783000000    -0.450000000
C     1.662000000     2.886000000    -0.166000000
C     2.383000000     4.206000000    -0.185000000
O     1.769000000     5.203000000    -0.276000000
O     3.551000000     4.308000000     0.054000000
