17
-99.54363
C     2.489000000     1.119000000    -0.072000000
H     3.552000000     0.946000000     0.076000000
C     1.544000000     0.086000000    -0.134000000
H     1.907000000    -0.909000000     0.108000000
C     0.205000000     0.332000000    -0.288000000
C    -0.771000000    -0.838000000    -0.482000000
H    -1.529000000    -0.738000000     0.298000000
H    -1.257000000    -0.897000000    -1.458000000
H    -0.280000000    -1.789000000    -0.264000000
C    -0.291000000     1.635000000    -0.470000000
H    -1.347000000     1.867000000    -0.590000000
C     0.658000000     2.650000000    -0.529000000
H     0.343000000     3.624000000    -0.896000000
C     2.061000000     2.377000000    -0.410000000
C     3.003000000     3.530000000    -0.730000000
O     2.536000000     4.648000000    -0.727000000
O     4.209000000     3.304000000    -0.906000000
