17
-89.78341
C     2.291000000     1.419000000     0.641000000
H     3.230000000     1.382000000     1.187000000
C     1.471000000     0.344000000     0.656000000
H     1.675000000    -0.483000000     1.331000000
C     0.378000000     0.320000000    -0.222000000
C    -0.432000000    -0.858000000    -0.359000000
H     0.075000000    -1.534000000    -1.051000000
H    -0.598000000    -1.322000000     0.615000000
H    -1.381000000    -0.496000000    -0.760000000
C     0.079000000     1.455000000    -1.002000000
H    -0.799000000     1.442000000    -1.644000000
C     0.886000000     2.523000000    -0.984000000
H     0.722000000     3.416000000    -1.582000000
C     1.979000000     2.540000000    -0.136000000
C     2.933000000     3.717000000    -0.181000000
O     2.929000000     4.622000000    -0.994000000
O     3.828000000     3.788000000     0.649000000
