17
-99.68178
C     2.271000000     1.159000000     0.395000000
H     3.344000000     1.063000000     0.541000000
C     1.521000000    -0.078000000     0.420000000
H     2.046000000    -1.026000000     0.497000000
C     0.157000000    -0.008000000     0.132000000
C    -0.668000000    -1.252000000    -0.103000000
H    -1.677000000    -1.164000000     0.306000000
H    -0.753000000    -1.343000000    -1.188000000
H    -0.120000000    -2.136000000     0.229000000
C    -0.416000000     1.266000000    -0.100000000
H    -1.478000000     1.394000000    -0.294000000
C     0.284000000     2.496000000    -0.009000000
H    -0.231000000     3.451000000    -0.070000000
C     1.662000000     2.420000000     0.301000000
C     2.530000000     3.662000000     0.411000000
O     2.098000000     4.754000000     0.153000000
O     3.720000000     3.486000000     0.732000000
