17
-91.85958
C     2.188000000     1.326000000    -0.041000000
H     3.238000000     1.219000000     0.217000000
C     1.376000000     0.224000000     0.135000000
H     1.793000000    -0.677000000     0.578000000
C     0.017000000     0.276000000    -0.139000000
C    -0.727000000    -1.042000000    -0.006000000
H    -1.174000000    -1.160000000     0.984000000
H    -1.532000000    -1.001000000    -0.742000000
H    -0.041000000    -1.888000000    -0.087000000
C    -0.508000000     1.434000000    -0.578000000
H    -1.582000000     1.587000000    -0.655000000
C     0.326000000     2.566000000    -0.836000000
H    -0.109000000     3.447000000    -1.300000000
C     1.677000000     2.498000000    -0.586000000
C     2.535000000     3.691000000    -0.821000000
O     2.080000000     4.806000000    -0.920000000
O     3.732000000     3.601000000    -0.677000000
