17
-99.66757
C     2.333000000     1.432000000    -0.124000000
H     3.374000000     1.313000000     0.165000000
C     1.564000000     0.322000000     0.126000000
H     1.898000000    -0.515000000     0.735000000
C     0.226000000     0.310000000    -0.275000000
C    -0.775000000    -0.770000000    -0.134000000
H    -0.747000000    -1.402000000    -1.024000000
H    -0.574000000    -1.518000000     0.637000000
H    -1.780000000    -0.344000000    -0.115000000
C    -0.271000000     1.443000000    -0.998000000
H    -1.301000000     1.389000000    -1.341000000
C     0.583000000     2.518000000    -1.238000000
H     0.206000000     3.380000000    -1.782000000
C     1.924000000     2.533000000    -0.856000000
C     2.877000000     3.734000000    -1.161000000
O     2.494000000     4.625000000    -1.888000000
O     4.008000000     3.736000000    -0.624000000
