17
-92.86225
C    -0.328000000     2.237000000     1.426000000
H    -0.846000000     2.756000000     2.228000000
C    -0.805000000     0.951000000     1.222000000
H    -1.643000000     0.573000000     1.802000000
C    -0.246000000     0.229000000     0.144000000
C    -0.746000000    -1.155000000    -0.087000000
H    -1.735000000    -1.430000000     0.286000000
H    -0.742000000    -1.515000000    -1.117000000
H    -0.027000000    -1.820000000     0.396000000
C     0.853000000     0.729000000    -0.552000000
H     1.274000000     0.119000000    -1.347000000
C     1.415000000     1.936000000    -0.204000000
H     2.308000000     2.332000000    -0.681000000
C     0.831000000     2.714000000     0.757000000
C     1.299000000     4.016000000     1.138000000
O     2.092000000     4.522000000     0.375000000
O     0.968000000     4.661000000     2.157000000
