17
-81.91040
C     0.024000000     2.241000000     0.923000000
H    -0.263000000     2.943000000     1.702000000
C    -0.395000000     0.924000000     1.035000000
H    -1.157000000     0.586000000     1.733000000
C     0.090000000    -0.017000000     0.169000000
C    -0.609000000    -1.405000000     0.271000000
H    -1.618000000    -1.431000000    -0.148000000
H    -0.124000000    -1.957000000    -0.536000000
H    -0.283000000    -1.951000000     1.159000000
C     0.902000000     0.368000000    -0.903000000
H     1.084000000    -0.407000000    -1.643000000
C     1.185000000     1.740000000    -1.040000000
H     1.750000000     2.059000000    -1.912000000
C     0.794000000     2.690000000    -0.090000000
C     1.293000000     4.057000000    -0.133000000
O     2.348000000     4.286000000    -0.658000000
O     0.814000000     4.921000000     0.618000000
