17
-90.39344
C     0.172000000     2.400000000     0.903000000
H    -0.081000000     3.085000000     1.708000000
C    -0.225000000     1.036000000     0.972000000
H    -0.789000000     0.730000000     1.850000000
C     0.124000000     0.136000000    -0.014000000
C    -0.357000000    -1.313000000     0.065000000
H    -1.429000000    -1.315000000     0.275000000
H    -0.205000000    -1.731000000    -0.932000000
H     0.211000000    -1.932000000     0.763000000
C     0.836000000     0.540000000    -1.109000000
H     1.218000000    -0.177000000    -1.831000000
C     1.293000000     1.827000000    -1.158000000
H     1.846000000     2.165000000    -2.031000000
C     0.992000000     2.805000000    -0.159000000
C     1.592000000     4.215000000    -0.355000000
O     2.239000000     4.450000000    -1.318000000
O     1.506000000     5.092000000     0.463000000
