17
-93.87525
C    -0.157000000     2.011000000     1.654000000
H    -0.734000000     2.575000000     2.382000000
C    -0.613000000     0.778000000     1.069000000
H    -1.527000000     0.385000000     1.507000000
C     0.118000000     0.138000000     0.109000000
C    -0.357000000    -1.051000000    -0.534000000
H     0.004000000    -1.159000000    -1.559000000
H    -0.022000000    -1.887000000     0.084000000
H    -1.445000000    -1.124000000    -0.595000000
C     1.374000000     0.671000000    -0.289000000
H     1.891000000     0.126000000    -1.075000000
C     1.939000000     1.765000000     0.360000000
H     2.897000000     2.160000000     0.033000000
C     1.118000000     2.536000000     1.298000000
C     1.825000000     3.663000000     1.881000000
O     2.930000000     3.955000000     1.465000000
O     1.289000000     4.362000000     2.785000000
