17
-92.70866
C    -2.061000000    -1.632000000     1.499000000
H    -2.453000000    -1.783000000     2.502000000
C    -1.104000000    -0.652000000     1.367000000
H    -0.904000000     0.027000000     2.191000000
C    -0.420000000    -0.498000000     0.200000000
C     0.672000000     0.561000000     0.054000000
H     1.101000000     0.725000000    -0.937000000
H     0.325000000     1.555000000     0.345000000
H     1.448000000     0.167000000     0.713000000
C    -0.810000000    -1.277000000    -0.883000000
H    -0.255000000    -1.154000000    -1.810000000
C    -1.760000000    -2.274000000    -0.807000000
H    -2.079000000    -2.881000000    -1.650000000
C    -2.388000000    -2.470000000     0.432000000
C    -3.337000000    -3.565000000     0.569000000
O    -3.497000000    -4.421000000    -0.285000000
O    -4.164000000    -3.537000000     1.470000000
