17
-94.77140
C    -0.251000000     2.408000000     0.942000000
H    -0.424000000     3.057000000     1.796000000
C    -0.645000000     1.058000000     1.037000000
H    -1.406000000     0.728000000     1.739000000
C    -0.261000000     0.128000000     0.068000000
C    -0.801000000    -1.292000000     0.156000000
H    -1.579000000    -1.577000000     0.867000000
H    -1.218000000    -1.667000000    -0.781000000
H     0.009000000    -1.986000000     0.390000000
C     0.569000000     0.537000000    -1.022000000
H     0.820000000    -0.238000000    -1.743000000
C     0.979000000     1.874000000    -1.120000000
H     1.657000000     2.313000000    -1.847000000
C     0.590000000     2.783000000    -0.120000000
C     1.065000000     4.259000000    -0.084000000
O     1.828000000     4.705000000    -1.022000000
O     0.759000000     4.934000000     0.826000000
