17
-98.94336
C     0.331000000     2.754000000     0.872000000
H     0.347000000     3.382000000     1.759000000
C    -0.105000000     1.406000000     0.903000000
H    -0.504000000     0.863000000     1.756000000
C    -0.060000000     0.599000000    -0.231000000
C    -0.344000000    -0.846000000    -0.009000000
H    -0.439000000    -1.406000000    -0.941000000
H     0.455000000    -1.306000000     0.575000000
H    -1.304000000    -1.037000000     0.477000000
C     0.356000000     1.108000000    -1.462000000
H     0.388000000     0.405000000    -2.290000000
C     0.780000000     2.458000000    -1.526000000
H     1.182000000     2.864000000    -2.450000000
C     0.862000000     3.242000000    -0.346000000
C     1.562000000     4.541000000    -0.391000000
O     1.437000000     5.317000000    -1.312000000
O     2.249000000     4.816000000     0.617000000
