17
-91.34267
C     0.159000000     3.201000000     0.759000000
H    -0.347000000     4.152000000     0.613000000
C    -0.604000000     2.013000000     0.430000000
H    -1.665000000     2.084000000     0.206000000
C     0.020000000     0.746000000     0.354000000
C    -0.726000000    -0.500000000    -0.078000000
H    -0.171000000    -1.408000000    -0.323000000
H    -1.328000000    -0.744000000     0.799000000
H    -1.342000000    -0.272000000    -0.951000000
C     1.390000000     0.694000000     0.543000000
H     1.889000000    -0.250000000     0.339000000
C     2.113000000     1.818000000     0.977000000
H     3.182000000     1.691000000     1.133000000
C     1.473000000     3.055000000     1.141000000
C     2.194000000     4.260000000     1.580000000
O     3.414000000     4.340000000     1.476000000
O     1.613000000     5.251000000     1.905000000
