17
-87.80000
C    -2.040000000    -1.455000000     1.233000000
H    -2.784000000    -1.361000000     2.020000000
C    -1.222000000    -0.405000000     1.008000000
H    -1.368000000     0.521000000     1.559000000
C    -0.089000000    -0.512000000     0.228000000
C     0.669000000     0.735000000    -0.159000000
H     0.903000000     0.668000000    -1.223000000
H     0.186000000     1.714000000    -0.137000000
H     1.602000000     0.953000000     0.364000000
C     0.035000000    -1.666000000    -0.556000000
H     0.867000000    -1.681000000    -1.256000000
C    -0.713000000    -2.792000000    -0.312000000
H    -0.505000000    -3.754000000    -0.773000000
C    -1.795000000    -2.687000000     0.602000000
C    -2.603000000    -3.839000000     1.033000000
O    -2.579000000    -4.847000000     0.396000000
O    -3.163000000    -3.783000000     2.103000000
