17
-98.62752
C     0.717000000     2.814000000    -0.980000000
H     1.163000000     3.404000000    -1.777000000
C     0.429000000     1.463000000    -1.169000000
H     0.659000000     0.966000000    -2.108000000
C    -0.139000000     0.763000000    -0.092000000
C    -0.544000000    -0.725000000    -0.186000000
H     0.386000000    -1.294000000    -0.250000000
H    -1.008000000    -1.133000000     0.714000000
H    -1.180000000    -0.941000000    -1.047000000
C    -0.451000000     1.447000000     1.084000000
H    -0.911000000     0.970000000     1.945000000
C    -0.196000000     2.837000000     1.198000000
H    -0.494000000     3.479000000     2.023000000
C     0.398000000     3.539000000     0.163000000
C     0.771000000     4.981000000     0.258000000
O     0.680000000     5.628000000     1.285000000
O     1.131000000     5.541000000    -0.762000000
