17
-95.61031
C    -0.347000000     3.071000000    -0.812000000
H    -0.167000000     3.758000000    -1.635000000
C    -0.468000000     1.704000000    -1.098000000
H    -0.429000000     1.357000000    -2.127000000
C    -0.511000000     0.768000000    -0.077000000
C    -0.798000000    -0.672000000    -0.472000000
H    -0.068000000    -0.963000000    -1.230000000
H    -0.680000000    -1.365000000     0.364000000
H    -1.736000000    -0.769000000    -1.023000000
C    -0.614000000     1.258000000     1.257000000
H    -0.828000000     0.554000000     2.057000000
C    -0.399000000     2.603000000     1.549000000
H    -0.305000000     3.009000000     2.553000000
C    -0.318000000     3.547000000     0.511000000
C    -0.004000000     4.996000000     0.826000000
O    -0.003000000     5.400000000     1.972000000
O    -0.046000000     5.819000000    -0.075000000
