17
-90.27542
C     0.077000000     3.060000000    -0.550000000
H     0.331000000     3.854000000    -1.248000000
C     0.270000000     1.673000000    -0.755000000
H     0.706000000     1.524000000    -1.739000000
C    -0.061000000     0.719000000     0.232000000
C     0.052000000    -0.759000000     0.064000000
H     0.996000000    -1.169000000     0.429000000
H    -0.699000000    -1.367000000     0.574000000
H    -0.087000000    -1.003000000    -0.991000000
C    -0.627000000     1.129000000     1.420000000
H    -0.796000000     0.371000000     2.180000000
C    -0.892000000     2.539000000     1.650000000
H    -1.456000000     2.757000000     2.552000000
C    -0.552000000     3.509000000     0.653000000
C    -0.894000000     4.947000000     0.790000000
O    -1.135000000     5.348000000     1.894000000
O    -0.873000000     5.779000000    -0.125000000
