17
-84.28706
C     0.706000000     2.708000000    -1.161000000
H     1.424000000     3.131000000    -1.859000000
C     0.671000000     1.344000000    -0.877000000
H     1.296000000     0.654000000    -1.438000000
C    -0.171000000     0.803000000     0.073000000
C    -0.257000000    -0.677000000     0.391000000
H     0.782000000    -1.001000000     0.485000000
H    -0.932000000    -0.903000000     1.219000000
H    -0.645000000    -1.244000000    -0.458000000
C    -1.096000000     1.533000000     0.665000000
H    -1.812000000     1.077000000     1.343000000
C    -1.018000000     2.912000000     0.580000000
H    -1.643000000     3.614000000     1.126000000
C    -0.070000000     3.561000000    -0.287000000
C     0.165000000     5.034000000    -0.244000000
O    -0.495000000     5.732000000     0.521000000
O     1.016000000     5.619000000    -0.863000000
