17
-87.44862
C    -0.428000000     3.118000000     0.112000000
H    -0.854000000     3.962000000    -0.425000000
C    -0.730000000     1.785000000    -0.227000000
H    -1.220000000     1.539000000    -1.166000000
C    -0.225000000     0.724000000     0.503000000
C    -0.415000000    -0.720000000     0.061000000
H    -1.330000000    -0.883000000    -0.512000000
H     0.420000000    -1.040000000    -0.566000000
H    -0.555000000    -1.387000000     0.914000000
C     0.413000000     1.026000000     1.687000000
H     0.823000000     0.189000000     2.247000000
C     0.706000000     2.324000000     2.054000000
H     1.235000000     2.452000000     2.995000000
C     0.304000000     3.389000000     1.254000000
C     0.575000000     4.851000000     1.555000000
O     1.413000000     5.059000000     2.388000000
O     0.348000000     5.730000000     0.785000000
