17
-97.09461
C     0.924000000     2.177000000    -1.438000000
H     1.576000000     2.637000000    -2.176000000
C     0.791000000     0.766000000    -1.330000000
H     1.510000000     0.216000000    -1.930000000
C    -0.109000000     0.170000000    -0.460000000
C    -0.181000000    -1.321000000    -0.386000000
H    -0.971000000    -1.695000000     0.268000000
H    -0.342000000    -1.749000000    -1.378000000
H     0.737000000    -1.645000000     0.108000000
C    -0.878000000     0.963000000     0.372000000
H    -1.460000000     0.467000000     1.145000000
C    -0.831000000     2.316000000     0.192000000
H    -1.524000000     2.933000000     0.759000000
C     0.082000000     2.993000000    -0.601000000
C     0.223000000     4.548000000    -0.574000000
O    -0.490000000     5.172000000     0.176000000
O     1.079000000     5.097000000    -1.228000000
