17
-96.30014
C    -1.542000000    -1.444000000     1.271000000
H    -2.396000000    -1.509000000     1.940000000
C    -0.941000000    -0.251000000     0.922000000
H    -1.175000000     0.731000000     1.328000000
C     0.103000000    -0.299000000     0.007000000
C     0.788000000     0.965000000    -0.446000000
H     1.436000000     0.754000000    -1.299000000
H     0.077000000     1.713000000    -0.803000000
H     1.526000000     1.389000000     0.236000000
C     0.560000000    -1.499000000    -0.542000000
H     1.407000000    -1.518000000    -1.223000000
C    -0.033000000    -2.665000000    -0.111000000
H     0.275000000    -3.576000000    -0.618000000
C    -1.153000000    -2.668000000     0.692000000
C    -2.018000000    -3.881000000     0.921000000
O    -1.733000000    -4.948000000     0.345000000
O    -2.894000000    -3.903000000     1.740000000
