17
-96.04864
C     1.415000000     2.112000000     0.847000000
H     1.994000000     2.528000000     1.668000000
C     0.896000000     0.785000000     0.991000000
H     1.237000000     0.165000000     1.816000000
C     0.149000000     0.309000000    -0.106000000
C    -0.393000000    -1.075000000    -0.117000000
H     0.097000000    -1.677000000    -0.885000000
H    -0.254000000    -1.523000000     0.870000000
H    -1.440000000    -1.110000000    -0.426000000
C    -0.136000000     1.096000000    -1.157000000
H    -0.846000000     0.704000000    -1.880000000
C     0.315000000     2.417000000    -1.275000000
H     0.011000000     3.028000000    -2.120000000
C     1.107000000     2.925000000    -0.248000000
C     1.384000000     4.431000000    -0.274000000
O     0.754000000     5.098000000    -1.064000000
O     2.013000000     5.010000000     0.633000000
