17
-96.91978
C     0.913000000     2.780000000     0.630000000
H     1.442000000     3.381000000     1.365000000
C     0.838000000     1.371000000     0.667000000
H     1.259000000     0.836000000     1.514000000
C     0.204000000     0.646000000    -0.359000000
C     0.280000000    -0.872000000    -0.309000000
H    -0.210000000    -1.408000000    -1.124000000
H     1.361000000    -1.025000000    -0.278000000
H    -0.077000000    -1.133000000     0.690000000
C    -0.366000000     1.255000000    -1.444000000
H    -0.907000000     0.725000000    -2.224000000
C    -0.196000000     2.646000000    -1.580000000
H    -0.533000000     3.156000000    -2.479000000
C     0.489000000     3.408000000    -0.574000000
C     0.736000000     4.905000000    -0.803000000
O     0.211000000     5.426000000    -1.761000000
O     1.433000000     5.546000000    -0.051000000
