17
-93.98305
C     1.479000000     1.388000000     1.277000000
H     2.043000000     1.596000000     2.183000000
C     0.802000000     0.153000000     1.166000000
H     1.003000000    -0.701000000     1.808000000
C    -0.057000000     0.001000000     0.047000000
C    -0.699000000    -1.280000000    -0.234000000
H    -1.778000000    -1.218000000    -0.389000000
H    -0.214000000    -1.621000000    -1.151000000
H    -0.545000000    -2.073000000     0.501000000
C    -0.228000000     0.993000000    -0.867000000
H    -0.786000000     0.774000000    -1.773000000
C     0.479000000     2.201000000    -0.811000000
H     0.277000000     2.923000000    -1.598000000
C     1.263000000     2.459000000     0.321000000
C     1.941000000     3.795000000     0.535000000
O     1.938000000     4.592000000    -0.403000000
O     2.122000000     4.212000000     1.679000000
