17
-95.18549
C     1.576000000     2.126000000     0.685000000
H     2.152000000     2.757000000     1.358000000
C     0.975000000     0.947000000     1.093000000
H     1.279000000     0.597000000     2.076000000
C     0.171000000     0.211000000     0.218000000
C    -0.202000000    -1.178000000     0.621000000
H     0.306000000    -1.818000000    -0.103000000
H     0.072000000    -1.515000000     1.623000000
H    -1.279000000    -1.357000000     0.617000000
C    -0.097000000     0.677000000    -1.037000000
H    -0.773000000     0.041000000    -1.603000000
C     0.547000000     1.872000000    -1.469000000
H     0.475000000     2.242000000    -2.489000000
C     1.490000000     2.496000000    -0.633000000
C     2.154000000     3.815000000    -1.087000000
O     1.791000000     4.391000000    -2.094000000
O     2.920000000     4.329000000    -0.302000000
