17
-91.66963
C     2.489000000     1.620000000     1.090000000
H     3.219000000     1.802000000     1.875000000
C     1.578000000     0.560000000     1.198000000
H     1.472000000     0.023000000     2.137000000
C     0.775000000     0.254000000     0.102000000
C    -0.213000000    -0.886000000     0.268000000
H     0.188000000    -1.661000000     0.924000000
H    -1.231000000    -0.699000000     0.617000000
H    -0.377000000    -1.296000000    -0.731000000
C     0.705000000     1.151000000    -0.974000000
H     0.009000000     0.983000000    -1.792000000
C     1.504000000     2.287000000    -1.037000000
H     1.358000000     2.926000000    -1.904000000
C     2.440000000     2.489000000    -0.031000000
C     3.181000000     3.771000000    -0.010000000
O     2.774000000     4.665000000    -0.730000000
O     4.177000000     3.927000000     0.606000000
