17
-96.00328
C     2.361000000     1.855000000    -0.950000000
H     3.443000000     1.913000000    -0.865000000
C     1.753000000     0.628000000    -0.653000000
H     2.390000000    -0.229000000    -0.451000000
C     0.360000000     0.494000000    -0.544000000
C    -0.372000000    -0.784000000    -0.103000000
H    -0.771000000    -1.291000000    -0.983000000
H     0.156000000    -1.587000000     0.415000000
H    -1.266000000    -0.583000000     0.491000000
C    -0.427000000     1.665000000    -0.809000000
H    -1.514000000     1.691000000    -0.828000000
C     0.180000000     2.842000000    -1.180000000
H    -0.456000000     3.693000000    -1.411000000
C     1.550000000     2.936000000    -1.252000000
C     2.148000000     4.172000000    -1.785000000
O     1.400000000     5.032000000    -2.279000000
O     3.326000000     4.269000000    -1.652000000
