17
-84.14174
C     2.079000000     2.007000000     0.148000000
H     2.806000000     2.403000000     0.853000000
C     1.391000000     0.765000000     0.430000000
H     1.547000000     0.269000000     1.384000000
C     0.508000000     0.202000000    -0.516000000
C    -0.245000000    -1.080000000    -0.145000000
H    -1.321000000    -1.025000000     0.029000000
H    -0.146000000    -1.803000000    -0.957000000
H     0.306000000    -1.547000000     0.675000000
C     0.112000000     0.905000000    -1.691000000
H    -0.757000000     0.711000000    -2.314000000
C     0.837000000     2.049000000    -1.927000000
H     0.510000000     2.619000000    -2.792000000
C     1.840000000     2.575000000    -1.097000000
C     2.497000000     3.853000000    -1.489000000
O     2.169000000     4.576000000    -2.383000000
O     3.460000000     4.203000000    -0.879000000
