17
-89.84620
C    -2.101000000    -1.941000000     1.661000000
H    -2.664000000    -1.892000000     2.589000000
C    -1.130000000    -0.964000000     1.383000000
H    -0.892000000    -0.157000000     2.072000000
C    -0.538000000    -0.922000000     0.159000000
C     0.436000000     0.136000000    -0.046000000
H     1.038000000     0.281000000     0.854000000
H     1.071000000    -0.053000000    -0.914000000
H    -0.112000000     1.045000000    -0.299000000
C    -0.813000000    -1.878000000    -0.768000000
H    -0.451000000    -1.803000000    -1.790000000
C    -1.657000000    -2.932000000    -0.494000000
H    -1.875000000    -3.730000000    -1.199000000
C    -2.296000000    -3.031000000     0.743000000
C    -3.139000000    -4.202000000     1.061000000
O    -3.269000000    -5.103000000     0.299000000
O    -3.671000000    -4.193000000     2.131000000
