17
-78.59759
C    -0.507000000     2.267000000     1.196000000
H    -1.368000000     2.846000000     1.521000000
C    -0.784000000     0.993000000     0.826000000
H    -1.852000000     0.789000000     0.808000000
C     0.227000000     0.065000000     0.362000000
C    -0.162000000    -1.346000000    -0.020000000
H     0.444000000    -1.628000000    -0.883000000
H    -0.138000000    -2.014000000     0.844000000
H    -1.204000000    -1.307000000    -0.345000000
C     1.535000000     0.611000000     0.190000000
H     2.335000000     0.000000000    -0.219000000
C     1.737000000     2.026000000     0.324000000
H     2.722000000     2.449000000     0.144000000
C     0.654000000     2.853000000     0.807000000
C     0.791000000     4.402000000     0.808000000
O     1.749000000     4.763000000     0.267000000
O     0.071000000     5.162000000     1.396000000
