17
-97.92282
C    -0.365000000     2.608000000     0.766000000
H    -1.182000000     3.192000000     1.182000000
C    -0.706000000     1.237000000     0.530000000
H    -1.749000000     0.970000000     0.679000000
C     0.254000000     0.319000000     0.051000000
C    -0.021000000    -1.158000000    -0.125000000
H    -0.413000000    -1.346000000    -1.127000000
H     0.853000000    -1.785000000     0.061000000
H    -0.819000000    -1.486000000     0.545000000
C     1.538000000     0.820000000    -0.203000000
H     2.348000000     0.165000000    -0.513000000
C     1.942000000     2.132000000     0.114000000
H     2.965000000     2.487000000     0.011000000
C     0.955000000     3.041000000     0.599000000
C     1.291000000     4.417000000     0.980000000
O     2.260000000     4.964000000     0.465000000
O     0.500000000     5.084000000     1.636000000
