17
-85.92692
C    -1.223000000     1.776000000     0.847000000
H    -2.216000000     2.176000000     1.036000000
C    -1.088000000     0.481000000     0.503000000
H    -2.060000000     0.000000000     0.428000000
C     0.138000000    -0.049000000     0.031000000
C     0.267000000    -1.431000000    -0.289000000
H     0.475000000    -1.438000000    -1.361000000
H     1.021000000    -2.007000000     0.251000000
H    -0.699000000    -1.892000000    -0.071000000
C     1.257000000     0.754000000     0.010000000
H     2.245000000     0.433000000    -0.308000000
C     1.142000000     2.039000000     0.377000000
H     2.067000000     2.606000000     0.326000000
C    -0.060000000     2.556000000     0.800000000
C    -0.195000000     4.019000000     1.193000000
O     0.805000000     4.739000000     1.262000000
O    -1.287000000     4.464000000     1.314000000
