17
-75.10877
C    -0.809000000     2.290000000     0.808000000
H    -1.768000000     2.767000000     0.996000000
C    -0.856000000     1.002000000     0.471000000
H    -1.744000000     0.386000000     0.585000000
C     0.322000000     0.246000000     0.201000000
C     0.359000000    -1.261000000    -0.069000000
H    -0.124000000    -1.737000000     0.787000000
H    -0.245000000    -1.498000000    -0.947000000
H     1.383000000    -1.634000000    -0.005000000
C     1.506000000     0.985000000     0.040000000
H     2.431000000     0.449000000    -0.158000000
C     1.536000000     2.350000000     0.295000000
H     2.507000000     2.798000000     0.489000000
C     0.364000000     3.044000000     0.738000000
C     0.338000000     4.504000000     1.028000000
O     1.286000000     5.061000000     1.456000000
O    -0.676000000     5.126000000     1.140000000
