17
-99.46172
C    -0.894000000    -1.937000000     1.760000000
H    -0.522000000    -2.487000000     2.621000000
C    -0.002000000    -1.036000000     1.196000000
H     0.882000000    -0.833000000     1.796000000
C    -0.300000000    -0.300000000     0.048000000
C     0.673000000     0.697000000    -0.451000000
H     0.522000000     1.647000000     0.067000000
H     1.729000000     0.445000000    -0.331000000
H     0.488000000     0.984000000    -1.488000000
C    -1.537000000    -0.499000000    -0.597000000
H    -1.787000000     0.138000000    -1.441000000
C    -2.381000000    -1.544000000    -0.104000000
H    -3.288000000    -1.771000000    -0.659000000
C    -2.070000000    -2.220000000     1.058000000
C    -3.098000000    -3.283000000     1.562000000
O    -3.961000000    -3.675000000     0.772000000
O    -3.014000000    -3.800000000     2.654000000
