17
-97.92008
C    -1.428000000     2.363000000    -1.770000000
H    -2.291000000     2.846000000    -2.223000000
C    -1.519000000     1.200000000    -0.926000000
H    -2.506000000     0.834000000    -0.658000000
C    -0.377000000     0.715000000    -0.281000000
C    -0.526000000    -0.474000000     0.628000000
H    -0.583000000    -0.081000000     1.645000000
H    -1.433000000    -1.039000000     0.404000000
H     0.379000000    -1.086000000     0.632000000
C     0.866000000     1.237000000    -0.507000000
H     1.783000000     0.852000000    -0.068000000
C     0.980000000     2.288000000    -1.424000000
H     1.983000000     2.706000000    -1.442000000
C    -0.107000000     2.859000000    -2.021000000
C    -0.029000000     4.190000000    -2.733000000
O     1.019000000     4.821000000    -2.767000000
O    -1.068000000     4.642000000    -3.178000000
