17
-89.08354
C    -1.763000000     2.246000000    -0.430000000
H    -2.740000000     2.607000000    -0.120000000
C    -1.421000000     0.936000000    -0.228000000
H    -2.216000000     0.259000000     0.076000000
C    -0.234000000     0.319000000    -0.576000000
C     0.068000000    -1.090000000    -0.389000000
H    -0.566000000    -1.749000000    -0.985000000
H     1.139000000    -1.275000000    -0.495000000
H    -0.190000000    -1.306000000     0.650000000
C     0.758000000     1.139000000    -1.001000000
H     1.745000000     0.751000000    -1.240000000
C     0.499000000     2.491000000    -1.215000000
H     1.313000000     3.134000000    -1.541000000
C    -0.756000000     3.080000000    -0.982000000
C    -1.015000000     4.551000000    -1.142000000
O    -0.312000000     5.355000000    -1.737000000
O    -1.959000000     4.997000000    -0.554000000
