17
-88.74933
C    -1.724000000     2.271000000     0.192000000
H    -2.719000000     2.710000000     0.169000000
C    -1.545000000     0.914000000     0.318000000
H    -2.410000000     0.257000000     0.289000000
C    -0.238000000     0.332000000     0.242000000
C    -0.076000000    -1.122000000     0.033000000
H     0.979000000    -1.374000000    -0.094000000
H    -0.519000000    -1.703000000     0.845000000
H    -0.508000000    -1.510000000    -0.893000000
C     0.810000000     1.242000000     0.185000000
H     1.786000000     0.789000000     0.032000000
C     0.669000000     2.605000000     0.138000000
H     1.478000000     3.287000000    -0.111000000
C    -0.603000000     3.118000000     0.113000000
C    -0.737000000     4.598000000    -0.125000000
O     0.155000000     5.342000000    -0.399000000
O    -1.784000000     5.190000000     0.230000000
