17
-99.91371
C    -0.493000000    -2.537000000     0.838000000
H    -0.154000000    -3.374000000     1.444000000
C     0.432000000    -1.552000000     0.598000000
H     1.402000000    -1.497000000     1.085000000
C     0.003000000    -0.446000000    -0.171000000
C     0.949000000     0.663000000    -0.463000000
H     1.365000000     1.054000000     0.468000000
H     1.746000000     0.301000000    -1.116000000
H     0.433000000     1.449000000    -1.019000000
C    -1.324000000    -0.413000000    -0.661000000
H    -1.687000000     0.435000000    -1.235000000
C    -2.222000000    -1.425000000    -0.314000000
H    -3.252000000    -1.411000000    -0.660000000
C    -1.849000000    -2.503000000     0.429000000
C    -2.894000000    -3.559000000     0.913000000
O    -3.938000000    -3.704000000     0.327000000
O    -2.585000000    -4.239000000     1.860000000
