17
-81.64901
C    -0.699000000     2.090000000     0.516000000
H    -1.612000000     2.675000000     0.598000000
C    -0.895000000     0.876000000    -0.076000000
H    -1.917000000     0.700000000    -0.400000000
C     0.098000000    -0.009000000    -0.152000000
C    -0.141000000    -1.305000000    -0.935000000
H    -0.043000000    -2.175000000    -0.283000000
H    -1.184000000    -1.183000000    -1.232000000
H     0.453000000    -1.316000000    -1.851000000
C     1.363000000     0.292000000     0.418000000
H     2.108000000    -0.500000000     0.400000000
C     1.607000000     1.492000000     0.969000000
H     2.544000000     1.806000000     1.420000000
C     0.559000000     2.390000000     1.110000000
C     0.765000000     3.711000000     1.784000000
O     1.835000000     4.091000000     2.190000000
O    -0.200000000     4.298000000     2.131000000
