17
-96.78542
C    -1.296000000     1.503000000     0.802000000
H    -2.223000000     2.070000000     0.819000000
C    -1.261000000     0.374000000     0.017000000
H    -2.130000000    -0.064000000    -0.468000000
C    -0.092000000    -0.340000000    -0.139000000
C    -0.193000000    -1.523000000    -1.066000000
H    -1.121000000    -2.082000000    -0.927000000
H     0.170000000    -1.378000000    -2.085000000
H     0.458000000    -2.289000000    -0.639000000
C     1.087000000     0.067000000     0.501000000
H     2.011000000    -0.454000000     0.261000000
C     1.051000000     1.231000000     1.277000000
H     1.975000000     1.531000000     1.765000000
C    -0.161000000     1.929000000     1.483000000
C    -0.147000000     3.268000000     2.191000000
O     0.939000000     3.618000000     2.727000000
O    -1.140000000     3.955000000     2.349000000
