17
-96.27208
C    -1.513000000     2.155000000     0.550000000
H    -2.428000000     2.724000000     0.410000000
C    -1.302000000     0.996000000    -0.240000000
H    -2.061000000     0.736000000    -0.974000000
C    -0.137000000     0.256000000    -0.060000000
C     0.048000000    -0.991000000    -0.900000000
H     0.187000000    -0.730000000    -1.951000000
H     0.828000000    -1.638000000    -0.494000000
H    -0.913000000    -1.494000000    -0.772000000
C     0.837000000     0.623000000     0.903000000
H     1.771000000     0.073000000     0.986000000
C     0.611000000     1.733000000     1.748000000
H     1.374000000     1.996000000     2.476000000
C    -0.609000000     2.430000000     1.678000000
C    -0.800000000     3.731000000     2.474000000
O    -0.111000000     3.895000000     3.473000000
O    -1.516000000     4.623000000     2.074000000
