17
-97.60349
C    -0.526000000     2.188000000     0.761000000
H    -1.257000000     2.946000000     1.031000000
C    -1.074000000     1.076000000     0.121000000
H    -2.056000000     1.124000000    -0.342000000
C    -0.168000000    -0.002000000    -0.124000000
C    -0.626000000    -1.113000000    -1.001000000
H    -0.319000000    -2.093000000    -0.630000000
H    -1.716000000    -1.076000000    -1.059000000
H    -0.188000000    -1.096000000    -2.001000000
C     1.085000000     0.024000000     0.450000000
H     1.766000000    -0.803000000     0.270000000
C     1.543000000     1.106000000     1.186000000
H     2.498000000     1.023000000     1.697000000
C     0.755000000     2.260000000     1.321000000
C     1.167000000     3.436000000     2.185000000
O     2.208000000     3.400000000     2.797000000
O     0.497000000     4.474000000     2.216000000
