17
-94.38251
C    -0.969000000     2.394000000     0.621000000
H    -1.808000000     3.060000000     0.437000000
C    -1.054000000     1.136000000     0.104000000
H    -2.002000000     0.859000000    -0.350000000
C     0.053000000     0.292000000     0.072000000
C    -0.150000000    -1.050000000    -0.476000000
H     0.772000000    -1.458000000    -0.895000000
H    -0.691000000    -1.713000000     0.202000000
H    -0.807000000    -1.021000000    -1.347000000
C     1.244000000     0.644000000     0.666000000
H     2.190000000     0.109000000     0.694000000
C     1.233000000     1.941000000     1.282000000
H     2.184000000     2.347000000     1.618000000
C     0.162000000     2.775000000     1.288000000
C     0.266000000     4.179000000     1.834000000
O     1.377000000     4.582000000     2.265000000
O    -0.767000000     4.760000000     2.068000000
