17
-94.24113
C     0.082000000     2.575000000     0.527000000
H    -0.479000000     3.498000000     0.406000000
C    -0.307000000     1.497000000    -0.231000000
H    -1.239000000     1.528000000    -0.790000000
C     0.322000000     0.245000000    -0.065000000
C    -0.167000000    -1.002000000    -0.749000000
H     0.671000000    -1.387000000    -1.334000000
H    -0.406000000    -1.702000000     0.054000000
H    -1.003000000    -0.709000000    -1.388000000
C     1.435000000     0.095000000     0.761000000
H     1.988000000    -0.824000000     0.941000000
C     1.812000000     1.240000000     1.532000000
H     2.561000000     1.229000000     2.320000000
C     1.074000000     2.452000000     1.473000000
C     1.350000000     3.576000000     2.389000000
O     1.897000000     3.350000000     3.437000000
O     0.799000000     4.650000000     2.187000000
