17
-90.83803
C    -0.077000000    -1.869000000     1.320000000
H     0.328000000    -2.467000000     2.132000000
C     0.497000000    -0.632000000     0.992000000
H     1.277000000    -0.210000000     1.621000000
C     0.015000000     0.111000000    -0.036000000
C     0.543000000     1.505000000    -0.300000000
H     1.631000000     1.415000000    -0.283000000
H     0.184000000     1.829000000    -1.279000000
H     0.260000000     2.161000000     0.526000000
C    -1.154000000    -0.325000000    -0.693000000
H    -1.670000000     0.373000000    -1.347000000
C    -1.741000000    -1.471000000    -0.312000000
H    -2.622000000    -1.770000000    -0.875000000
C    -1.302000000    -2.291000000     0.675000000
C    -1.880000000    -3.587000000     1.138000000
O    -3.000000000    -3.818000000     0.647000000
O    -1.505000000    -4.290000000     2.091000000
