17
-98.04233
C    -0.665000000     1.692000000     0.674000000
H    -1.593000000     2.254000000     0.739000000
C    -0.722000000     0.575000000    -0.192000000
H    -1.635000000     0.352000000    -0.739000000
C     0.292000000    -0.345000000    -0.262000000
C     0.274000000    -1.504000000    -1.218000000
H     1.319000000    -1.761000000    -1.403000000
H    -0.231000000    -2.355000000    -0.755000000
H    -0.131000000    -1.078000000    -2.139000000
C     1.428000000    -0.211000000     0.604000000
H     2.242000000    -0.920000000     0.484000000
C     1.490000000     0.953000000     1.358000000
H     2.428000000     1.195000000     1.850000000
C     0.458000000     1.908000000     1.501000000
C     0.562000000     3.093000000     2.439000000
O     1.382000000     3.053000000     3.310000000
O    -0.274000000     3.990000000     2.226000000
