17
-93.89872
C     0.033000000     2.276000000     1.529000000
H    -0.414000000     3.242000000     1.748000000
C    -0.392000000     1.606000000     0.375000000
H    -1.112000000     2.091000000    -0.279000000
C     0.173000000     0.341000000     0.060000000
C    -0.425000000    -0.368000000    -1.101000000
H    -0.557000000    -1.436000000    -0.919000000
H    -1.333000000     0.155000000    -1.408000000
H     0.237000000    -0.371000000    -1.969000000
C     1.167000000    -0.207000000     0.800000000
H     1.360000000    -1.269000000     0.671000000
C     1.544000000     0.430000000     1.968000000
H     2.221000000    -0.072000000     2.654000000
C     1.033000000     1.716000000     2.324000000
C     1.438000000     2.397000000     3.576000000
O     2.112000000     1.856000000     4.394000000
O     1.013000000     3.527000000     3.727000000
