17
-94.87554
C    -0.949000000     1.255000000     1.944000000
H    -1.710000000     1.941000000     2.305000000
C    -1.087000000     0.805000000     0.618000000
H    -2.012000000     1.085000000     0.120000000
C    -0.138000000    -0.043000000     0.012000000
C    -0.181000000    -0.362000000    -1.464000000
H     0.122000000    -1.399000000    -1.623000000
H    -1.228000000    -0.276000000    -1.762000000
H     0.453000000     0.359000000    -1.984000000
C     0.937000000    -0.473000000     0.820000000
H     1.699000000    -1.099000000     0.364000000
C     1.046000000    -0.059000000     2.152000000
H     2.012000000    -0.151000000     2.642000000
C     0.097000000     0.813000000     2.740000000
C     0.285000000     1.303000000     4.172000000
O     1.191000000     0.779000000     4.844000000
O    -0.365000000     2.152000000     4.656000000
