17
-98.52906
C    -0.264000000     1.694000000     1.435000000
H    -0.863000000     2.521000000     1.809000000
C    -0.532000000     1.125000000     0.228000000
H    -1.315000000     1.607000000    -0.354000000
C     0.192000000     0.003000000    -0.296000000
C    -0.107000000    -0.697000000    -1.587000000
H    -0.238000000    -0.004000000    -2.421000000
H     0.687000000    -1.401000000    -1.846000000
H    -1.056000000    -1.233000000    -1.525000000
C     1.105000000    -0.566000000     0.581000000
H     1.648000000    -1.438000000     0.227000000
C     1.326000000     0.004000000     1.778000000
H     2.098000000    -0.481000000     2.370000000
C     0.679000000     1.135000000     2.280000000
C     0.849000000     1.555000000     3.749000000
O     1.764000000     1.107000000     4.482000000
O     0.068000000     2.431000000     4.162000000
