17
-94.48839
C    -0.106000000    -1.918000000     1.993000000
H     0.320000000    -2.276000000     2.927000000
C     0.442000000    -0.802000000     1.359000000
H     1.166000000    -0.180000000     1.879000000
C     0.018000000    -0.448000000     0.056000000
C     0.555000000     0.773000000    -0.714000000
H    -0.204000000     1.470000000    -1.073000000
H     1.120000000     1.340000000     0.029000000
H     1.240000000     0.563000000    -1.538000000
C    -0.909000000    -1.264000000    -0.602000000
H    -1.071000000    -0.890000000    -1.609000000
C    -1.466000000    -2.336000000     0.014000000
H    -2.176000000    -2.936000000    -0.549000000
C    -1.023000000    -2.709000000     1.306000000
C    -1.422000000    -4.070000000     1.817000000
O    -2.227000000    -4.706000000     1.199000000
O    -1.091000000    -4.396000000     2.952000000
