17
-95.89627
C    -1.419000000     1.399000000     2.257000000
H    -2.115000000     2.207000000     2.474000000
C    -1.249000000     1.044000000     0.925000000
H    -1.779000000     1.552000000     0.123000000
C    -0.394000000    -0.016000000     0.600000000
C    -0.186000000    -0.361000000    -0.801000000
H    -0.969000000    -1.022000000    -1.180000000
H    -0.370000000     0.565000000    -1.349000000
H     0.802000000    -0.795000000    -0.971000000
C     0.239000000    -0.732000000     1.658000000
H     0.905000000    -1.530000000     1.341000000
C    -0.033000000    -0.406000000     3.024000000
H     0.434000000    -0.940000000     3.848000000
C    -0.819000000     0.721000000     3.301000000
C    -1.051000000     1.030000000     4.759000000
O    -0.582000000     0.364000000     5.633000000
O    -1.663000000     2.053000000     5.082000000
