17
-95.46355
C    -1.125000000     1.051000000     2.216000000
H    -1.736000000     1.851000000     2.625000000
C    -0.952000000     0.894000000     0.842000000
H    -1.375000000     1.628000000     0.160000000
C    -0.065000000    -0.061000000     0.358000000
C    -0.017000000    -0.409000000    -1.156000000
H    -0.971000000    -0.313000000    -1.678000000
H     0.593000000     0.283000000    -1.740000000
H     0.436000000    -1.398000000    -1.251000000
C     0.531000000    -0.925000000     1.197000000
H     1.167000000    -1.749000000     0.884000000
C     0.360000000    -0.865000000     2.558000000
H     0.821000000    -1.625000000     3.182000000
C    -0.475000000     0.147000000     3.100000000
C    -0.625000000     0.303000000     4.600000000
O     0.104000000    -0.442000000     5.274000000
O    -1.217000000     1.233000000     5.095000000
