17
-96.19672
C    -0.553000000     0.843000000     2.982000000
H    -1.247000000     1.423000000     3.584000000
C    -0.856000000     0.672000000     1.675000000
H    -1.694000000     1.203000000     1.231000000
C    -0.035000000    -0.101000000     0.867000000
C    -0.299000000    -0.315000000    -0.620000000
H     0.523000000    -0.837000000    -1.114000000
H    -1.158000000    -0.988000000    -0.657000000
H    -0.483000000     0.594000000    -1.196000000
C     1.141000000    -0.630000000     1.351000000
H     1.922000000    -1.109000000     0.766000000
C     1.315000000    -0.564000000     2.781000000
H     2.167000000    -1.114000000     3.172000000
C     0.477000000     0.122000000     3.603000000
C     0.687000000     0.284000000     5.108000000
O     1.431000000    -0.460000000     5.689000000
O     0.127000000     1.189000000     5.750000000
