17
-90.81275
C    -0.478000000     0.743000000     2.515000000
H    -1.218000000     1.214000000     3.158000000
C    -0.896000000     0.584000000     1.199000000
H    -1.907000000     0.876000000     0.927000000
C    -0.141000000    -0.144000000     0.294000000
C    -0.593000000    -0.180000000    -1.122000000
H    -1.655000000     0.061000000    -1.194000000
H     0.094000000     0.452000000    -1.689000000
H    -0.507000000    -1.208000000    -1.480000000
C     1.097000000    -0.669000000     0.717000000
H     1.833000000    -1.073000000     0.027000000
C     1.492000000    -0.545000000     2.029000000
H     2.465000000    -0.892000000     2.366000000
C     0.694000000     0.144000000     2.982000000
C     1.254000000     0.295000000     4.406000000
O     2.221000000    -0.212000000     4.862000000
O     0.710000000     1.164000000     5.074000000
