17
-84.73037
C    -0.526000000     0.871000000     2.455000000
H    -1.208000000     1.472000000     3.051000000
C    -0.788000000     0.703000000     1.056000000
H    -1.678000000     1.178000000     0.650000000
C     0.125000000    -0.005000000     0.291000000
C    -0.061000000    -0.074000000    -1.198000000
H     0.503000000     0.689000000    -1.739000000
H     0.330000000    -1.034000000    -1.541000000
H    -1.125000000    -0.073000000    -1.445000000
C     1.237000000    -0.559000000     0.834000000
H     1.926000000    -1.196000000     0.286000000
C     1.495000000    -0.366000000     2.148000000
H     2.273000000    -1.015000000     2.540000000
C     0.649000000     0.356000000     2.986000000
C     1.060000000     0.405000000     4.393000000
O     2.187000000     0.228000000     4.769000000
O     0.266000000     0.881000000     5.134000000
