17
-93.45326
C    -0.573000000     1.093000000     2.735000000
H    -1.266000000     1.760000000     3.241000000
C    -0.648000000     0.872000000     1.342000000
H    -1.184000000     1.661000000     0.821000000
C     0.036000000    -0.205000000     0.774000000
C    -0.190000000    -0.541000000    -0.681000000
H     0.649000000    -1.113000000    -1.084000000
H    -1.039000000    -1.182000000    -0.929000000
H    -0.260000000     0.377000000    -1.268000000
C     0.926000000    -0.973000000     1.563000000
H     1.452000000    -1.781000000     1.060000000
C     1.072000000    -0.620000000     2.919000000
H     1.687000000    -1.212000000     3.591000000
C     0.306000000     0.351000000     3.530000000
C     0.524000000     0.566000000     5.001000000
O     1.277000000    -0.111000000     5.705000000
O     0.025000000     1.513000000     5.566000000
