17
-99.35960
C    -0.180000000     1.024000000     2.315000000
H    -0.750000000     1.682000000     2.965000000
C    -0.434000000     0.757000000     0.922000000
H    -1.270000000     1.210000000     0.394000000
C     0.356000000    -0.135000000     0.231000000
C     0.221000000    -0.485000000    -1.181000000
H    -0.790000000    -0.860000000    -1.351000000
H     0.411000000     0.364000000    -1.841000000
H     0.899000000    -1.269000000    -1.524000000
C     1.499000000    -0.711000000     0.804000000
H     2.192000000    -1.401000000     0.330000000
C     1.742000000    -0.470000000     2.175000000
H     2.656000000    -0.811000000     2.654000000
C     0.928000000     0.372000000     2.905000000
C     1.235000000     0.683000000     4.376000000
O     2.250000000     0.238000000     4.902000000
O     0.393000000     1.295000000     5.007000000
