17
-96.81984
C    -0.714000000     0.560000000     2.849000000
H    -1.544000000     1.041000000     3.359000000
C    -0.629000000     0.650000000     1.447000000
H    -1.351000000     1.252000000     0.900000000
C     0.389000000    -0.068000000     0.748000000
C     0.156000000    -0.289000000    -0.757000000
H    -0.883000000    -0.522000000    -0.996000000
H     0.492000000     0.554000000    -1.364000000
H     0.695000000    -1.141000000    -1.177000000
C     1.332000000    -0.879000000     1.438000000
H     2.090000000    -1.450000000     0.907000000
C     1.271000000    -0.921000000     2.798000000
H     2.054000000    -1.504000000     3.277000000
C     0.299000000    -0.154000000     3.561000000
C     0.355000000    -0.189000000     5.050000000
O     1.249000000    -0.823000000     5.561000000
O    -0.453000000     0.577000000     5.635000000
