17
-93.47493
C    -0.277000000     1.466000000     1.781000000
H    -0.954000000     2.171000000     2.255000000
C    -0.657000000     1.026000000     0.550000000
H    -1.527000000     1.529000000     0.135000000
C     0.110000000     0.080000000    -0.127000000
C    -0.235000000    -0.254000000    -1.588000000
H    -0.835000000    -1.166000000    -1.559000000
H    -0.952000000     0.414000000    -2.069000000
H     0.617000000    -0.296000000    -2.271000000
C     1.153000000    -0.502000000     0.483000000
H     1.769000000    -1.241000000    -0.024000000
C     1.468000000    -0.156000000     1.779000000
H     2.380000000    -0.596000000     2.176000000
C     0.782000000     0.861000000     2.485000000
C     1.162000000     1.137000000     3.950000000
O     1.966000000     0.400000000     4.500000000
O     0.470000000     1.904000000     4.571000000
