17
-93.19803
C     0.302000000     0.786000000     2.358000000
H    -0.128000000     1.577000000     2.967000000
C    -0.236000000     0.745000000     1.073000000
H    -1.019000000     1.425000000     0.747000000
C     0.286000000    -0.176000000     0.157000000
C    -0.455000000    -0.416000000    -1.105000000
H    -1.276000000     0.263000000    -1.345000000
H     0.240000000    -0.439000000    -1.947000000
H    -1.020000000    -1.350000000    -1.081000000
C     1.334000000    -0.974000000     0.489000000
H     1.863000000    -1.631000000    -0.196000000
C     1.824000000    -1.026000000     1.787000000
H     2.673000000    -1.699000000     1.876000000
C     1.328000000    -0.105000000     2.730000000
C     1.947000000    -0.039000000     4.082000000
O     2.896000000    -0.757000000     4.389000000
O     1.661000000     0.864000000     4.885000000
