17
-92.60715
C    -0.063000000     1.353000000     2.070000000
H    -0.396000000     2.236000000     2.609000000
C    -0.572000000     1.054000000     0.852000000
H    -1.412000000     1.672000000     0.545000000
C     0.016000000     0.045000000     0.092000000
C    -0.468000000    -0.159000000    -1.297000000
H    -1.004000000    -1.102000000    -1.422000000
H    -1.099000000     0.617000000    -1.734000000
H     0.437000000    -0.172000000    -1.907000000
C     0.933000000    -0.834000000     0.660000000
H     1.303000000    -1.649000000     0.043000000
C     1.434000000    -0.633000000     1.918000000
H     2.174000000    -1.307000000     2.341000000
C     0.965000000     0.473000000     2.644000000
C     1.422000000     0.769000000     3.992000000
O     2.425000000     0.212000000     4.392000000
O     0.756000000     1.491000000     4.672000000
