17
-87.39821
C    -0.613000000     0.946000000     2.057000000
H    -1.345000000     1.272000000     2.792000000
C    -0.949000000     0.539000000     0.794000000
H    -1.951000000     0.636000000     0.385000000
C    -0.010000000     0.160000000    -0.142000000
C    -0.379000000    -0.235000000    -1.569000000
H     0.410000000    -0.907000000    -1.913000000
H    -1.260000000    -0.871000000    -1.675000000
H    -0.402000000     0.617000000    -2.252000000
C     1.256000000     0.053000000     0.267000000
H     2.024000000    -0.354000000    -0.385000000
C     1.681000000     0.287000000     1.545000000
H     2.672000000     0.180000000     1.977000000
C     0.780000000     0.778000000     2.409000000
C     1.186000000     1.225000000     3.836000000
O     2.189000000     0.596000000     4.173000000
O     0.444000000     1.784000000     4.660000000
