17
-97.16322
C    -0.534000000     0.978000000     2.374000000
H    -1.200000000     1.682000000     2.866000000
C    -0.889000000     0.612000000     1.062000000
H    -1.822000000     0.955000000     0.621000000
C     0.013000000    -0.043000000     0.190000000
C    -0.315000000    -0.414000000    -1.228000000
H    -0.852000000     0.372000000    -1.763000000
H     0.554000000    -0.589000000    -1.866000000
H    -0.768000000    -1.399000000    -1.361000000
C     1.214000000    -0.445000000     0.734000000
H     1.952000000    -0.895000000     0.074000000
C     1.563000000    -0.109000000     2.040000000
H     2.501000000    -0.501000000     2.423000000
C     0.687000000     0.575000000     2.890000000
C     1.063000000     0.786000000     4.261000000
O     2.019000000     0.167000000     4.812000000
O     0.348000000     1.578000000     4.902000000
