17
-99.91655
C    -1.056000000     1.012000000     2.752000000
H    -1.702000000     1.683000000     3.312000000
C    -1.377000000     0.786000000     1.399000000
H    -2.133000000     1.370000000     0.882000000
C    -0.607000000    -0.077000000     0.654000000
C    -0.997000000    -0.282000000    -0.793000000
H    -0.471000000     0.458000000    -1.400000000
H    -0.778000000    -1.294000000    -1.139000000
H    -2.068000000    -0.151000000    -0.956000000
C     0.485000000    -0.709000000     1.297000000
H     1.141000000    -1.354000000     0.718000000
C     0.817000000    -0.438000000     2.585000000
H     1.725000000    -0.862000000     3.008000000
C     0.014000000     0.415000000     3.354000000
C     0.425000000     0.720000000     4.772000000
O     1.435000000     0.146000000     5.216000000
O    -0.306000000     1.350000000     5.467000000
