17
-91.44327
C     0.742000000     0.679000000     2.071000000
H     0.446000000     1.201000000     2.978000000
C    -0.094000000     0.511000000     0.984000000
H    -1.038000000     1.045000000     1.051000000
C     0.319000000    -0.321000000    -0.055000000
C    -0.568000000    -0.692000000    -1.233000000
H    -1.275000000    -1.471000000    -0.938000000
H    -0.986000000     0.184000000    -1.733000000
H    -0.016000000    -1.195000000    -2.030000000
C     1.560000000    -1.027000000     0.101000000
H     1.810000000    -1.714000000    -0.704000000
C     2.298000000    -0.818000000     1.247000000
H     3.201000000    -1.422000000     1.295000000
C     2.016000000     0.091000000     2.187000000
C     2.838000000     0.294000000     3.454000000
O     3.454000000    -0.631000000     3.854000000
O     2.829000000     1.377000000     4.015000000
