17
-84.87746
C    -0.738000000     1.026000000     2.296000000
H    -1.422000000     1.396000000     3.055000000
C    -1.208000000     0.653000000     1.066000000
H    -2.261000000     0.865000000     0.899000000
C    -0.324000000     0.155000000     0.053000000
C    -0.915000000    -0.345000000    -1.289000000
H    -1.725000000    -1.078000000    -1.311000000
H    -1.283000000     0.467000000    -1.919000000
H    -0.131000000    -0.745000000    -1.934000000
C     0.986000000     0.108000000     0.328000000
H     1.720000000    -0.257000000    -0.385000000
C     1.392000000     0.368000000     1.663000000
H     2.457000000     0.349000000     1.881000000
C     0.576000000     0.891000000     2.638000000
C     1.122000000     1.229000000     4.007000000
O     2.208000000     0.887000000     4.337000000
O     0.561000000     2.032000000     4.716000000
