17
-95.44090
C    -1.208000000    -1.726000000     1.541000000
H    -1.099000000    -2.127000000     2.545000000
C    -0.178000000    -0.815000000     1.135000000
H     0.667000000    -0.568000000     1.772000000
C    -0.289000000    -0.222000000    -0.109000000
C     0.750000000     0.799000000    -0.638000000
H     0.966000000     1.590000000     0.083000000
H     1.699000000     0.280000000    -0.788000000
H     0.487000000     1.203000000    -1.617000000
C    -1.481000000    -0.389000000    -0.855000000
H    -1.540000000     0.110000000    -1.819000000
C    -2.456000000    -1.242000000    -0.457000000
H    -3.436000000    -1.286000000    -0.927000000
C    -2.331000000    -2.026000000     0.729000000
C    -3.380000000    -3.020000000     1.225000000
O    -4.458000000    -3.155000000     0.728000000
O    -3.097000000    -3.697000000     2.218000000
