17
-90.85442
C    -0.149000000     0.736000000     2.727000000
H    -0.928000000     1.139000000     3.369000000
C    -0.538000000     0.331000000     1.422000000
H    -1.597000000     0.431000000     1.199000000
C     0.447000000     0.110000000     0.460000000
C    -0.026000000    -0.348000000    -0.839000000
H    -0.161000000    -1.407000000    -0.607000000
H    -1.005000000     0.065000000    -1.091000000
H     0.661000000    -0.224000000    -1.679000000
C     1.761000000    -0.115000000     0.858000000
H     2.439000000    -0.499000000     0.100000000
C     2.112000000     0.269000000     2.175000000
H     3.076000000     0.011000000     2.606000000
C     1.152000000     0.707000000     3.068000000
C     1.536000000     1.100000000     4.469000000
O     2.550000000     0.648000000     4.944000000
O     0.875000000     1.978000000     4.992000000
