17
-92.96910
C    -0.195000000     1.273000000     2.778000000
H    -0.762000000     2.010000000     3.340000000
C    -0.597000000     0.890000000     1.480000000
H    -1.529000000     1.288000000     1.087000000
C     0.309000000     0.158000000     0.774000000
C     0.091000000    -0.096000000    -0.765000000
H     0.646000000    -0.958000000    -1.140000000
H    -0.953000000    -0.254000000    -1.043000000
H     0.416000000     0.861000000    -1.178000000
C     1.520000000    -0.322000000     1.287000000
H     2.106000000    -0.959000000     0.630000000
C     1.916000000     0.118000000     2.494000000
H     2.879000000    -0.172000000     2.906000000
C     1.039000000     0.856000000     3.293000000
C     1.451000000     1.278000000     4.674000000
O     2.583000000     1.024000000     5.034000000
O     0.795000000     2.089000000     5.393000000
