17
-97.82660
C    -0.556000000     1.624000000     1.757000000
H    -1.332000000     2.062000000     2.380000000
C    -0.863000000     0.777000000     0.713000000
H    -1.937000000     0.706000000     0.558000000
C     0.178000000     0.351000000    -0.148000000
C    -0.183000000    -0.438000000    -1.378000000
H    -0.895000000     0.069000000    -2.033000000
H     0.718000000    -0.674000000    -1.950000000
H    -0.696000000    -1.366000000    -1.116000000
C     1.520000000     0.607000000     0.065000000
H     2.278000000     0.223000000    -0.614000000
C     1.889000000     1.382000000     1.191000000
H     2.947000000     1.592000000     1.322000000
C     0.810000000     1.930000000     1.997000000
C     1.210000000     2.928000000     3.069000000
O     2.417000000     3.116000000     3.274000000
O     0.363000000     3.372000000     3.857000000
