17
-97.21557
C     0.002000000     2.021000000     1.189000000
H    -0.580000000     2.875000000     1.527000000
C    -0.645000000     1.078000000     0.349000000
H    -1.720000000     1.146000000     0.203000000
C     0.099000000     0.097000000    -0.305000000
C    -0.611000000    -0.868000000    -1.127000000
H    -0.615000000    -0.551000000    -2.172000000
H    -0.059000000    -1.809000000    -1.085000000
H    -1.664000000    -0.978000000    -0.858000000
C     1.422000000    -0.110000000     0.082000000
H     1.838000000    -1.060000000    -0.242000000
C     2.067000000     0.795000000     0.928000000
H     3.086000000     0.532000000     1.199000000
C     1.357000000     1.822000000     1.528000000
C     2.147000000     2.851000000     2.318000000
O     3.054000000     2.422000000     3.010000000
O     1.795000000     4.024000000     2.343000000
