17
-95.10826
C    -0.338000000     1.745000000     1.809000000
H    -1.082000000     2.131000000     2.500000000
C    -0.857000000     0.988000000     0.734000000
H    -1.926000000     0.887000000     0.567000000
C     0.020000000     0.292000000    -0.094000000
C    -0.597000000    -0.502000000    -1.245000000
H    -0.443000000    -1.544000000    -0.956000000
H    -1.678000000    -0.357000000    -1.292000000
H    -0.055000000    -0.269000000    -2.164000000
C     1.338000000     0.298000000     0.209000000
H     2.066000000    -0.242000000    -0.390000000
C     1.871000000     1.125000000     1.186000000
H     2.945000000     1.285000000     1.225000000
C     1.020000000     1.924000000     1.988000000
C     1.436000000     2.935000000     3.022000000
O     2.601000000     3.170000000     3.186000000
O     0.562000000     3.244000000     3.844000000
