17
-94.23712
C    -0.373000000     1.947000000     1.364000000
H    -0.976000000     2.651000000     1.933000000
C    -0.937000000     0.942000000     0.559000000
H    -2.023000000     0.897000000     0.551000000
C    -0.179000000     0.119000000    -0.143000000
C    -0.693000000    -0.776000000    -1.228000000
H     0.180000000    -1.051000000    -1.825000000
H    -1.178000000    -1.651000000    -0.791000000
H    -1.471000000    -0.270000000    -1.803000000
C     1.227000000     0.167000000    -0.035000000
H     1.932000000    -0.466000000    -0.567000000
C     1.823000000     1.118000000     0.786000000
H     2.909000000     1.147000000     0.814000000
C     1.018000000     2.039000000     1.428000000
C     1.631000000     3.112000000     2.305000000
O     2.787000000     3.388000000     2.162000000
O     1.003000000     3.639000000     3.258000000
