17
-96.12314
C    -0.486000000     2.027000000     1.708000000
H    -1.149000000     2.573000000     2.374000000
C    -1.012000000     1.078000000     0.791000000
H    -2.078000000     0.867000000     0.805000000
C    -0.236000000     0.327000000    -0.092000000
C    -0.743000000    -0.638000000    -1.035000000
H     0.060000000    -1.092000000    -1.620000000
H    -1.417000000    -1.357000000    -0.564000000
H    -1.426000000    -0.120000000    -1.712000000
C     1.116000000     0.517000000     0.056000000
H     1.770000000    -0.138000000    -0.514000000
C     1.691000000     1.508000000     0.848000000
H     2.771000000     1.613000000     0.785000000
C     0.875000000     2.301000000     1.722000000
C     1.447000000     3.262000000     2.697000000
O     2.645000000     3.346000000     2.748000000
O     0.685000000     3.966000000     3.340000000
