17
-93.88903
C    -0.319000000     1.807000000     1.564000000
H    -0.941000000     2.569000000     2.026000000
C    -0.815000000     0.936000000     0.636000000
H    -1.881000000     0.952000000     0.426000000
C     0.081000000     0.081000000    -0.108000000
C    -0.341000000    -0.770000000    -1.251000000
H    -0.897000000    -0.097000000    -1.908000000
H     0.542000000    -1.130000000    -1.783000000
H    -0.931000000    -1.618000000    -0.897000000
C     1.411000000     0.201000000     0.186000000
H     2.126000000    -0.385000000    -0.386000000
C     1.891000000     0.974000000     1.183000000
H     2.943000000     1.042000000     1.449000000
C     1.057000000     1.829000000     1.882000000
C     1.579000000     2.615000000     3.025000000
O     2.743000000     2.525000000     3.319000000
O     0.898000000     3.440000000     3.646000000
