17
-93.97227
C     0.824000000     1.389000000     2.176000000
H     1.153000000     2.425000000     2.200000000
C     0.188000000     0.992000000     0.995000000
H     0.199000000     1.715000000     0.184000000
C    -0.321000000    -0.337000000     0.852000000
C    -0.837000000    -0.671000000    -0.541000000
H    -0.006000000    -0.510000000    -1.230000000
H    -1.105000000    -1.716000000    -0.710000000
H    -1.647000000    -0.133000000    -1.038000000
C    -0.426000000    -1.144000000     1.987000000
H    -0.788000000    -2.155000000     1.818000000
C     0.178000000    -0.655000000     3.164000000
H     0.113000000    -1.344000000     4.002000000
C     0.795000000     0.613000000     3.327000000
C     1.240000000     1.096000000     4.687000000
O     1.369000000     0.287000000     5.567000000
O     1.607000000     2.269000000     4.773000000
