17
-100.71799
C     1.227000000     1.890000000     1.274000000
H     1.657000000     2.889000000     1.266000000
C     0.540000000     1.472000000     0.094000000
H     0.423000000     2.233000000    -0.673000000
C    -0.003000000     0.187000000     0.004000000
C    -0.803000000    -0.157000000    -1.203000000
H    -0.450000000    -1.101000000    -1.624000000
H    -1.855000000    -0.358000000    -0.990000000
H    -0.767000000     0.681000000    -1.903000000
C     0.164000000    -0.681000000     1.063000000
H    -0.297000000    -1.665000000     1.091000000
C     0.874000000    -0.303000000     2.207000000
H     0.976000000    -0.983000000     3.049000000
C     1.439000000     0.980000000     2.292000000
C     2.198000000     1.394000000     3.511000000
O     2.624000000     0.584000000     4.295000000
O     2.435000000     2.600000000     3.705000000
