17
-95.35006
C     2.070000000     1.825000000     0.945000000
H     2.701000000     2.696000000     0.786000000
C     1.081000000     1.379000000     0.063000000
H     0.941000000     1.876000000    -0.893000000
C     0.405000000     0.177000000     0.346000000
C    -0.642000000    -0.330000000    -0.563000000
H    -1.556000000     0.072000000    -0.122000000
H    -0.420000000    -0.024000000    -1.588000000
H    -0.794000000    -1.408000000    -0.475000000
C     0.689000000    -0.524000000     1.475000000
H     0.032000000    -1.370000000     1.655000000
C     1.657000000    -0.057000000     2.409000000
H     1.829000000    -0.592000000     3.340000000
C     2.267000000     1.152000000     2.146000000
C     3.228000000     1.624000000     3.228000000
O     3.492000000     0.944000000     4.160000000
O     3.734000000     2.712000000     3.014000000
