17
-96.77114
C     1.292000000     1.674000000     1.994000000
H     1.610000000     2.648000000     2.354000000
C     0.893000000     1.437000000     0.699000000
H     0.941000000     2.262000000    -0.008000000
C     0.457000000     0.182000000     0.277000000
C     0.032000000    -0.143000000    -1.129000000
H    -0.755000000    -0.896000000    -1.207000000
H    -0.171000000     0.754000000    -1.718000000
H     0.894000000    -0.566000000    -1.648000000
C     0.492000000    -0.874000000     1.170000000
H     0.201000000    -1.877000000     0.867000000
C     0.899000000    -0.642000000     2.482000000
H     1.073000000    -1.394000000     3.247000000
C     1.333000000     0.569000000     2.897000000
C     1.789000000     0.826000000     4.281000000
O     1.344000000     0.156000000     5.229000000
O     2.613000000     1.678000000     4.535000000
