17
-99.79202
C     1.171000000     1.666000000     1.141000000
H     1.588000000     2.668000000     1.086000000
C     0.707000000     1.067000000    -0.037000000
H     0.915000000     1.522000000    -1.002000000
C     0.138000000    -0.221000000     0.055000000
C    -0.382000000    -0.816000000    -1.243000000
H    -0.729000000    -1.810000000    -0.954000000
H    -1.175000000    -0.205000000    -1.679000000
H     0.422000000    -1.035000000    -1.949000000
C     0.078000000    -0.922000000     1.288000000
H    -0.526000000    -1.822000000     1.370000000
C     0.456000000    -0.271000000     2.464000000
H     0.245000000    -0.753000000     3.415000000
C     0.982000000     1.025000000     2.371000000
C     1.463000000     1.811000000     3.630000000
O     1.268000000     1.227000000     4.708000000
O     2.104000000     2.845000000     3.575000000
