17
-91.32453
C    -2.276000000    -1.340000000     1.583000000
H    -2.756000000    -1.365000000     2.558000000
C    -1.091000000    -0.698000000     1.407000000
H    -0.473000000    -0.400000000     2.250000000
C    -0.657000000    -0.448000000     0.096000000
C     0.700000000     0.059000000    -0.202000000
H     0.773000000     0.749000000    -1.045000000
H     1.070000000     0.598000000     0.673000000
H     1.314000000    -0.818000000    -0.416000000
C    -1.392000000    -0.891000000    -1.010000000
H    -1.133000000    -0.673000000    -2.043000000
C    -2.654000000    -1.509000000    -0.759000000
H    -3.231000000    -1.850000000    -1.615000000
C    -3.083000000    -1.788000000     0.504000000
C    -4.305000000    -2.667000000     0.663000000
O    -4.547000000    -3.515000000    -0.153000000
O    -5.058000000    -2.597000000     1.600000000
