17
-83.28668
C     1.182000000     0.724000000     2.263000000
H     1.948000000     1.358000000     2.703000000
C     1.026000000     0.603000000     0.881000000
H     1.579000000     1.309000000     0.266000000
C     0.055000000    -0.223000000     0.437000000
C    -0.205000000    -0.469000000    -1.023000000
H    -1.260000000    -0.731000000    -1.120000000
H    -0.111000000     0.525000000    -1.465000000
H     0.454000000    -1.264000000    -1.380000000
C    -0.653000000    -1.085000000     1.313000000
H    -1.339000000    -1.840000000     0.937000000
C    -0.452000000    -0.909000000     2.658000000
H    -0.962000000    -1.602000000     3.322000000
C     0.567000000    -0.082000000     3.160000000
C     0.862000000    -0.095000000     4.568000000
O     0.036000000    -0.497000000     5.340000000
O     1.882000000     0.333000000     5.023000000
