17
-88.50572
C     1.222000000     1.005000000     1.755000000
H     1.805000000     1.897000000     1.972000000
C     0.873000000     0.911000000     0.404000000
H     1.160000000     1.756000000    -0.216000000
C     0.040000000    -0.064000000    -0.099000000
C    -0.342000000    -0.002000000    -1.534000000
H     0.463000000     0.483000000    -2.089000000
H    -0.496000000    -0.976000000    -2.005000000
H    -1.231000000     0.628000000    -1.606000000
C    -0.306000000    -1.132000000     0.752000000
H    -1.025000000    -1.827000000     0.326000000
C     0.094000000    -1.065000000     2.142000000
H    -0.357000000    -1.829000000     2.770000000
C     0.856000000     0.011000000     2.613000000
C     1.314000000     0.143000000     4.076000000
O     1.476000000    -0.832000000     4.748000000
O     1.589000000     1.199000000     4.579000000
