17
-95.30005
C     1.888000000     0.057000000     2.157000000
H     2.834000000     0.452000000     2.521000000
C     1.419000000     0.387000000     0.889000000
H     1.948000000     1.191000000     0.383000000
C     0.284000000    -0.260000000     0.421000000
C    -0.199000000    -0.084000000    -0.965000000
H     0.190000000     0.777000000    -1.513000000
H     0.049000000    -0.964000000    -1.562000000
H    -1.290000000    -0.076000000    -1.021000000
C    -0.376000000    -1.192000000     1.220000000
H    -1.254000000    -1.684000000     0.809000000
C     0.083000000    -1.418000000     2.502000000
H    -0.466000000    -2.081000000     3.166000000
C     1.194000000    -0.778000000     2.998000000
C     1.571000000    -0.972000000     4.436000000
O     0.834000000    -1.627000000     5.133000000
O     2.572000000    -0.532000000     4.994000000
