17
-88.53993
C     1.991000000    -0.110000000     2.159000000
H     2.982000000     0.241000000     2.432000000
C     1.427000000     0.241000000     0.949000000
H     2.044000000     0.888000000     0.331000000
C     0.145000000    -0.238000000     0.551000000
C    -0.376000000    -0.031000000    -0.843000000
H    -1.338000000     0.486000000    -0.834000000
H     0.332000000     0.646000000    -1.326000000
H    -0.323000000    -0.927000000    -1.466000000
C    -0.460000000    -1.146000000     1.397000000
H    -1.386000000    -1.641000000     1.116000000
C     0.011000000    -1.412000000     2.646000000
H    -0.449000000    -2.203000000     3.232000000
C     1.244000000    -0.990000000     3.033000000
C     1.777000000    -1.452000000     4.341000000
O     1.160000000    -2.275000000     4.997000000
O     2.692000000    -0.869000000     4.787000000
