17
-96.99168
C     0.837000000     1.516000000     1.838000000
H     1.297000000     2.480000000     2.036000000
C     0.833000000     1.163000000     0.489000000
H     1.307000000     1.843000000    -0.214000000
C     0.232000000    -0.035000000     0.072000000
C     0.099000000    -0.300000000    -1.400000000
H     0.781000000    -1.121000000    -1.633000000
H    -0.895000000    -0.707000000    -1.597000000
H     0.177000000     0.479000000    -2.161000000
C    -0.270000000    -0.906000000     1.007000000
H    -0.713000000    -1.842000000     0.680000000
C    -0.353000000    -0.520000000     2.332000000
H    -0.657000000    -1.234000000     3.093000000
C     0.192000000     0.725000000     2.749000000
C     0.168000000     1.077000000     4.227000000
O    -0.501000000     0.446000000     5.041000000
O     0.747000000     2.119000000     4.656000000
