17
-91.72091
C     0.304000000     1.599000000     2.200000000
H     0.836000000     2.343000000     2.788000000
C     0.535000000     1.388000000     0.826000000
H     0.977000000     2.181000000     0.229000000
C    -0.030000000     0.286000000     0.220000000
C     0.228000000     0.087000000    -1.252000000
H     0.851000000    -0.803000000    -1.357000000
H    -0.639000000    -0.303000000    -1.789000000
H     0.672000000     0.978000000    -1.700000000
C    -0.805000000    -0.683000000     0.957000000
H    -1.336000000    -1.547000000     0.564000000
C    -1.002000000    -0.461000000     2.320000000
H    -1.675000000    -1.157000000     2.814000000
C    -0.466000000     0.683000000     2.955000000
C    -0.597000000     0.634000000     4.495000000
O    -1.105000000    -0.305000000     5.119000000
O    -0.029000000     1.475000000     5.156000000
