17
-90.99232
C     1.589000000     0.772000000     1.985000000
H     2.403000000     1.441000000     2.255000000
C     1.089000000     0.783000000     0.702000000
H     1.519000000     1.488000000    -0.005000000
C     0.088000000    -0.106000000     0.347000000
C    -0.386000000    -0.204000000    -1.056000000
H    -1.069000000     0.619000000    -1.274000000
H     0.513000000    -0.027000000    -1.650000000
H    -0.760000000    -1.207000000    -1.275000000
C    -0.547000000    -0.911000000     1.337000000
H    -1.331000000    -1.596000000     1.023000000
C     0.070000000    -0.974000000     2.646000000
H    -0.296000000    -1.759000000     3.303000000
C     1.126000000    -0.081000000     2.962000000
C     1.735000000    -0.065000000     4.350000000
O     1.342000000    -0.821000000     5.180000000
O     2.415000000     0.872000000     4.684000000
