17
-94.14149
C     0.668000000     2.023000000     1.160000000
H     1.245000000     2.938000000     1.265000000
C     0.764000000     1.378000000    -0.012000000
H     1.376000000     1.680000000    -0.859000000
C     0.074000000     0.140000000    -0.125000000
C     0.105000000    -0.517000000    -1.461000000
H    -0.163000000    -1.571000000    -1.370000000
H    -0.378000000     0.149000000    -2.179000000
H     1.095000000    -0.586000000    -1.918000000
C    -0.726000000    -0.365000000     0.872000000
H    -1.158000000    -1.347000000     0.695000000
C    -0.849000000     0.362000000     2.038000000
H    -1.489000000    -0.006000000     2.835000000
C    -0.189000000     1.598000000     2.170000000
C    -0.412000000     2.353000000     3.464000000
O    -1.410000000     2.210000000     4.130000000
O     0.414000000     3.228000000     3.846000000
