17
-98.83025
C     0.168000000     1.893000000     1.513000000
H     0.195000000     2.977000000     1.592000000
C     0.273000000     1.243000000     0.308000000
H     0.350000000     1.770000000    -0.639000000
C     0.077000000    -0.142000000     0.180000000
C     0.054000000    -0.833000000    -1.144000000
H     0.684000000    -0.252000000    -1.821000000
H     0.455000000    -1.846000000    -1.065000000
H    -0.946000000    -0.860000000    -1.581000000
C    -0.109000000    -0.874000000     1.342000000
H    -0.237000000    -1.945000000     1.206000000
C    -0.220000000    -0.220000000     2.593000000
H    -0.480000000    -0.766000000     3.496000000
C    -0.045000000     1.167000000     2.691000000
C    -0.205000000     1.903000000     3.997000000
O    -0.561000000     1.314000000     4.983000000
O    -0.180000000     3.132000000     4.023000000
