17
-88.65529
C     1.643000000     1.193000000     2.523000000
H     2.511000000     1.825000000     2.688000000
C     1.252000000     1.130000000     1.162000000
H     1.695000000     1.832000000     0.460000000
C     0.314000000     0.173000000     0.790000000
C    -0.054000000    -0.109000000    -0.671000000
H    -0.047000000    -1.196000000    -0.772000000
H    -1.075000000     0.279000000    -0.668000000
H     0.607000000     0.401000000    -1.374000000
C    -0.424000000    -0.501000000     1.768000000
H    -1.157000000    -1.236000000     1.443000000
C    -0.111000000    -0.369000000     3.102000000
H    -0.674000000    -0.809000000     3.921000000
C     0.943000000     0.437000000     3.470000000
C     1.171000000     0.704000000     4.919000000
O     0.283000000     0.819000000     5.737000000
O     2.282000000     0.933000000     5.331000000
