17
-92.84600
C     0.321000000     1.561000000     1.998000000
H     0.631000000     2.567000000     2.268000000
C     0.307000000     1.171000000     0.620000000
H     0.459000000     1.966000000    -0.105000000
C     0.006000000    -0.134000000     0.248000000
C    -0.278000000    -0.552000000    -1.147000000
H     0.168000000     0.226000000    -1.769000000
H     0.145000000    -1.518000000    -1.432000000
H    -1.343000000    -0.550000000    -1.388000000
C    -0.284000000    -1.052000000     1.308000000
H    -0.670000000    -2.039000000     1.069000000
C    -0.276000000    -0.659000000     2.656000000
H    -0.480000000    -1.366000000     3.457000000
C     0.035000000     0.644000000     2.998000000
C     0.069000000     1.145000000     4.435000000
O    -0.106000000     0.450000000     5.397000000
O     0.295000000     2.314000000     4.697000000
