17
-91.23250
C    -0.348000000     1.819000000     2.197000000
H    -0.161000000     2.871000000     2.397000000
C    -0.107000000     1.418000000     0.868000000
H     0.092000000     2.154000000     0.093000000
C    -0.053000000     0.085000000     0.558000000
C     0.082000000    -0.279000000    -0.957000000
H     0.015000000    -1.358000000    -1.117000000
H    -0.751000000     0.107000000    -1.548000000
H     0.969000000     0.141000000    -1.436000000
C    -0.257000000    -0.872000000     1.586000000
H    -0.208000000    -1.933000000     1.355000000
C    -0.407000000    -0.488000000     2.918000000
H    -0.407000000    -1.220000000     3.722000000
C    -0.457000000     0.880000000     3.250000000
C    -0.427000000     1.318000000     4.706000000
O    -0.012000000     0.578000000     5.563000000
O    -1.018000000     2.321000000     5.135000000
