17
-91.67999
C    -2.317000000    -0.298000000     1.114000000
H    -3.046000000     0.121000000     1.803000000
C    -1.206000000     0.480000000     0.912000000
H    -1.131000000     1.469000000     1.357000000
C    -0.173000000     0.075000000     0.113000000
C     1.023000000     1.002000000    -0.035000000
H     1.630000000     0.590000000    -0.844000000
H     0.649000000     1.983000000    -0.336000000
H     1.715000000     1.048000000     0.809000000
C    -0.163000000    -1.200000000    -0.464000000
H     0.758000000    -1.587000000    -0.892000000
C    -1.246000000    -2.023000000    -0.206000000
H    -1.211000000    -3.048000000    -0.566000000
C    -2.390000000    -1.557000000     0.502000000
C    -3.689000000    -2.298000000     0.822000000
O    -3.955000000    -3.397000000     0.382000000
O    -4.561000000    -1.730000000     1.436000000
