17
-100.16237
C    -2.221000000    -0.017000000     1.340000000
H    -2.972000000     0.508000000     1.924000000
C    -1.113000000     0.699000000     0.921000000
H    -1.097000000     1.779000000     1.041000000
C    -0.103000000     0.022000000     0.225000000
C     1.090000000     0.822000000    -0.197000000
H     1.196000000     1.851000000     0.156000000
H     2.039000000     0.298000000    -0.069000000
H     0.985000000     0.880000000    -1.282000000
C    -0.073000000    -1.365000000     0.034000000
H     0.807000000    -1.749000000    -0.475000000
C    -1.140000000    -2.131000000     0.544000000
H    -1.116000000    -3.218000000     0.566000000
C    -2.216000000    -1.434000000     1.184000000
C    -3.458000000    -2.187000000     1.582000000
O    -3.473000000    -3.454000000     1.537000000
O    -4.394000000    -1.527000000     2.052000000
