17
-89.68297
C     0.187000000     2.063000000     1.724000000
H     0.438000000     3.113000000     1.857000000
C     0.336000000     1.537000000     0.458000000
H     0.749000000     2.112000000    -0.367000000
C    -0.034000000     0.235000000     0.231000000
C     0.067000000    -0.321000000    -1.195000000
H    -0.853000000    -0.696000000    -1.647000000
H     0.606000000     0.339000000    -1.878000000
H     0.692000000    -1.213000000    -1.126000000
C    -0.250000000    -0.597000000     1.319000000
H    -0.448000000    -1.624000000     1.023000000
C    -0.394000000    -0.117000000     2.641000000
H    -0.672000000    -0.758000000     3.474000000
C    -0.141000000     1.320000000     2.840000000
C    -0.117000000     1.888000000     4.257000000
O    -0.399000000     1.174000000     5.196000000
O     0.148000000     3.032000000     4.486000000
