17
-93.62716
C     0.328000000     1.760000000     1.739000000
H     0.659000000     2.741000000     2.068000000
C     0.529000000     1.397000000     0.379000000
H     0.935000000     2.112000000    -0.332000000
C     0.079000000     0.139000000    -0.079000000
C     0.212000000    -0.325000000    -1.537000000
H    -0.298000000    -1.278000000    -1.692000000
H    -0.395000000     0.415000000    -2.063000000
H     1.251000000    -0.333000000    -1.872000000
C    -0.473000000    -0.758000000     0.845000000
H    -0.861000000    -1.713000000     0.502000000
C    -0.601000000    -0.399000000     2.173000000
H    -1.028000000    -1.117000000     2.869000000
C    -0.224000000     0.837000000     2.662000000
C    -0.451000000     1.234000000     4.090000000
O    -0.885000000     0.445000000     4.856000000
O    -0.318000000     2.382000000     4.503000000
