17
-86.79711
C    -0.494000000     1.946000000     2.563000000
H    -0.100000000     2.811000000     3.089000000
C     0.091000000     1.578000000     1.403000000
H     0.871000000     2.193000000     0.961000000
C    -0.394000000     0.526000000     0.667000000
C     0.170000000     0.227000000    -0.707000000
H     1.257000000     0.320000000    -0.654000000
H    -0.029000000    -0.832000000    -0.884000000
H    -0.282000000     0.878000000    -1.457000000
C    -1.219000000    -0.405000000     1.272000000
H    -1.566000000    -1.229000000     0.654000000
C    -1.918000000    -0.025000000     2.393000000
H    -2.766000000    -0.618000000     2.727000000
C    -1.641000000     1.226000000     2.984000000
C    -2.465000000     1.602000000     4.225000000
O    -3.390000000     0.982000000     4.631000000
O    -1.930000000     2.435000000     4.966000000
