17
-93.33687
C    -1.355000000     2.452000000     1.540000000
H    -1.472000000     3.522000000     1.689000000
C    -0.758000000     1.847000000     0.421000000
H    -0.472000000     2.475000000    -0.420000000
C    -0.507000000     0.454000000     0.294000000
C     0.372000000    -0.155000000    -0.802000000
H     1.436000000    -0.032000000    -0.588000000
H     0.138000000    -1.213000000    -0.935000000
H     0.258000000     0.287000000    -1.794000000
C    -0.891000000    -0.359000000     1.336000000
H    -0.599000000    -1.405000000     1.308000000
C    -1.566000000     0.153000000     2.420000000
H    -1.862000000    -0.507000000     3.231000000
C    -1.827000000     1.535000000     2.503000000
C    -2.533000000     2.019000000     3.736000000
O    -2.845000000     1.282000000     4.608000000
O    -2.661000000     3.207000000     3.816000000
