17
-88.13449
C     0.552000000     1.641000000     2.013000000
H     0.783000000     2.652000000     2.341000000
C     0.294000000     1.425000000     0.637000000
H     0.474000000     2.207000000    -0.097000000
C     0.045000000     0.210000000     0.094000000
C    -0.187000000     0.067000000    -1.463000000
H    -0.732000000     0.874000000    -1.957000000
H     0.717000000     0.058000000    -2.075000000
H    -0.682000000    -0.894000000    -1.621000000
C    -0.016000000    -0.844000000     0.958000000
H    -0.319000000    -1.838000000     0.638000000
C     0.313000000    -0.685000000     2.304000000
H     0.411000000    -1.527000000     2.984000000
C     0.627000000     0.533000000     2.884000000
C     0.900000000     0.723000000     4.355000000
O     0.510000000    -0.072000000     5.172000000
O     1.332000000     1.779000000     4.728000000
