17
-92.32922
C    -0.422000000     1.102000000     2.363000000
H    -0.245000000     1.969000000     2.993000000
C     0.077000000     1.142000000     1.063000000
H     0.620000000     2.046000000     0.799000000
C    -0.098000000     0.086000000     0.174000000
C     0.383000000     0.046000000    -1.262000000
H    -0.046000000    -0.788000000    -1.821000000
H     0.055000000     0.973000000    -1.737000000
H     1.462000000    -0.113000000    -1.303000000
C    -0.696000000    -1.049000000     0.741000000
H    -0.909000000    -1.903000000     0.104000000
C    -1.281000000    -1.100000000     2.022000000
H    -1.677000000    -2.034000000     2.412000000
C    -1.084000000    -0.007000000     2.824000000
C    -1.455000000    -0.054000000     4.245000000
O    -1.985000000    -0.982000000     4.825000000
O    -1.333000000     0.976000000     4.918000000
