17
-92.02208
C     1.198000000     1.170000000     2.215000000
H     1.757000000     2.050000000     2.521000000
C     0.725000000     1.123000000     0.896000000
H     0.852000000     2.062000000     0.364000000
C     0.121000000    -0.077000000     0.332000000
C    -0.188000000    -0.152000000    -1.116000000
H    -1.260000000    -0.198000000    -1.319000000
H     0.152000000     0.742000000    -1.644000000
H     0.291000000    -1.005000000    -1.601000000
C    -0.045000000    -1.173000000     1.176000000
H    -0.484000000    -2.096000000     0.806000000
C     0.434000000    -1.092000000     2.508000000
H     0.207000000    -1.843000000     3.260000000
C     1.013000000     0.088000000     3.012000000
C     1.428000000     0.177000000     4.476000000
O     1.127000000    -0.700000000     5.243000000
O     2.052000000     1.101000000     4.856000000
