17
-95.72410
C     1.146000000     1.964000000     1.972000000
H     1.573000000     2.955000000     2.099000000
C     0.557000000     1.667000000     0.749000000
H     0.329000000     2.463000000     0.046000000
C     0.260000000     0.345000000     0.379000000
C     0.001000000    -0.069000000    -1.068000000
H     0.512000000    -0.969000000    -1.415000000
H    -1.080000000    -0.075000000    -1.225000000
H     0.496000000     0.741000000    -1.607000000
C     0.584000000    -0.686000000     1.275000000
H     0.379000000    -1.742000000     1.123000000
C     1.097000000    -0.363000000     2.537000000
H     1.159000000    -1.168000000     3.266000000
C     1.427000000     0.906000000     2.863000000
C     1.835000000     1.325000000     4.261000000
O     1.997000000     0.418000000     5.092000000
O     2.103000000     2.496000000     4.478000000
