17
-95.09625
C    -0.691000000     1.535000000     1.956000000
H    -0.691000000     2.538000000     2.376000000
C    -0.251000000     1.286000000     0.688000000
H     0.176000000     2.160000000     0.204000000
C    -0.295000000     0.071000000     0.036000000
C     0.238000000    -0.012000000    -1.422000000
H     0.811000000     0.852000000    -1.765000000
H     0.828000000    -0.931000000    -1.431000000
H    -0.631000000     0.056000000    -2.079000000
C    -0.791000000    -1.003000000     0.726000000
H    -0.763000000    -1.974000000     0.238000000
C    -1.220000000    -0.805000000     2.056000000
H    -1.505000000    -1.703000000     2.599000000
C    -1.163000000     0.457000000     2.703000000
C    -1.551000000     0.495000000     4.156000000
O    -1.972000000    -0.577000000     4.634000000
O    -1.516000000     1.496000000     4.802000000
