17
-98.07175
C    -1.997000000    -0.174000000     1.762000000
H    -2.635000000     0.320000000     2.490000000
C    -1.194000000     0.577000000     0.890000000
H    -1.342000000     1.653000000     0.846000000
C    -0.286000000    -0.082000000     0.064000000
C     0.707000000     0.758000000    -0.632000000
H     1.284000000     0.119000000    -1.304000000
H     0.214000000     1.559000000    -1.186000000
H     1.392000000     1.242000000     0.068000000
C    -0.232000000    -1.448000000    -0.016000000
H     0.404000000    -1.930000000    -0.754000000
C    -1.135000000    -2.232000000     0.725000000
H    -1.115000000    -3.319000000     0.736000000
C    -1.981000000    -1.559000000     1.707000000
C    -2.772000000    -2.362000000     2.680000000
O    -2.753000000    -3.577000000     2.553000000
O    -3.370000000    -1.818000000     3.567000000
