17
-87.49643
C     0.559000000     1.613000000     2.329000000
H     0.866000000     2.633000000     2.547000000
C     0.390000000     1.205000000     1.033000000
H     0.395000000     2.008000000     0.300000000
C     0.275000000    -0.144000000     0.579000000
C    -0.004000000    -0.488000000    -0.852000000
H     0.314000000    -1.529000000    -0.935000000
H    -1.042000000    -0.364000000    -1.168000000
H     0.665000000    -0.004000000    -1.567000000
C     0.294000000    -1.075000000     1.560000000
H     0.117000000    -2.104000000     1.258000000
C     0.606000000    -0.707000000     2.877000000
H     0.808000000    -1.492000000     3.601000000
C     0.638000000     0.611000000     3.305000000
C     0.976000000     0.899000000     4.693000000
O     1.404000000    -0.033000000     5.358000000
O     1.042000000     1.997000000     5.185000000
