17
-88.54251
C     0.436000000     1.920000000     1.942000000
H     0.267000000     2.989000000     2.050000000
C     0.077000000     1.363000000     0.740000000
H    -0.484000000     1.984000000     0.045000000
C     0.321000000     0.019000000     0.525000000
C    -0.172000000    -0.453000000    -0.779000000
H    -0.159000000    -1.544000000    -0.737000000
H    -1.127000000    -0.089000000    -1.164000000
H     0.579000000    -0.120000000    -1.499000000
C     0.927000000    -0.774000000     1.465000000
H     1.265000000    -1.799000000     1.335000000
C     1.337000000    -0.119000000     2.653000000
H     1.958000000    -0.679000000     3.347000000
C     1.143000000     1.176000000     2.942000000
C     1.531000000     1.907000000     4.194000000
O     2.045000000     1.324000000     5.141000000
O     1.152000000     3.035000000     4.418000000
