17
-97.17187
C     0.624000000     1.759000000     1.974000000
H     0.617000000     2.831000000     2.154000000
C     0.357000000     1.266000000     0.661000000
H     0.040000000     1.969000000    -0.105000000
C     0.396000000    -0.030000000     0.348000000
C     0.075000000    -0.381000000    -1.055000000
H    -0.970000000    -0.175000000    -1.297000000
H     0.631000000     0.264000000    -1.739000000
H     0.293000000    -1.439000000    -1.215000000
C     0.555000000    -0.953000000     1.369000000
H     0.529000000    -2.006000000     1.099000000
C     0.782000000    -0.568000000     2.677000000
H     0.789000000    -1.257000000     3.517000000
C     0.973000000     0.793000000     2.972000000
C     1.298000000     1.199000000     4.400000000
O     1.570000000     0.320000000     5.215000000
O     1.355000000     2.386000000     4.669000000
