17
-96.15443
C    -1.523000000    -0.316000000     2.012000000
H    -2.038000000     0.143000000     2.852000000
C    -0.832000000     0.422000000     1.093000000
H    -0.926000000     1.504000000     1.135000000
C    -0.171000000    -0.170000000     0.050000000
C     0.717000000     0.649000000    -0.756000000
H     0.151000000     1.429000000    -1.269000000
H     1.509000000     1.125000000    -0.174000000
H     1.139000000     0.060000000    -1.572000000
C    -0.359000000    -1.571000000    -0.132000000
H     0.070000000    -2.077000000    -0.993000000
C    -1.109000000    -2.341000000     0.748000000
H    -1.226000000    -3.412000000     0.600000000
C    -1.563000000    -1.740000000     1.915000000
C    -2.193000000    -2.578000000     2.966000000
O    -2.145000000    -3.792000000     2.870000000
O    -2.821000000    -2.089000000     3.893000000
