17
-89.37715
C    -0.775000000     1.660000000     1.345000000
H    -0.893000000     2.712000000     1.592000000
C    -0.427000000     1.246000000     0.054000000
H    -0.359000000     1.917000000    -0.799000000
C    -0.172000000    -0.117000000    -0.167000000
C     0.081000000    -0.427000000    -1.578000000
H     0.126000000    -1.517000000    -1.606000000
H    -0.746000000    -0.149000000    -2.235000000
H     0.961000000     0.102000000    -1.950000000
C    -0.155000000    -1.052000000     0.866000000
H     0.151000000    -2.044000000     0.543000000
C    -0.420000000    -0.651000000     2.161000000
H    -0.356000000    -1.428000000     2.918000000
C    -0.726000000     0.743000000     2.371000000
C    -1.014000000     1.271000000     3.748000000
O    -0.492000000     0.778000000     4.728000000
O    -1.529000000     2.364000000     3.916000000
