17
-91.53430
C    -1.091000000     1.099000000     2.220000000
H    -1.266000000     2.079000000     2.656000000
C    -0.425000000     1.062000000     0.934000000
H    -0.213000000     1.995000000     0.419000000
C    -0.136000000    -0.195000000     0.362000000
C     0.200000000    -0.224000000    -1.104000000
H    -0.228000000    -1.065000000    -1.654000000
H    -0.066000000     0.697000000    -1.628000000
H     1.263000000    -0.457000000    -1.193000000
C    -0.457000000    -1.383000000     1.038000000
H    -0.194000000    -2.341000000     0.597000000
C    -0.963000000    -1.295000000     2.318000000
H    -1.071000000    -2.210000000     2.894000000
C    -1.335000000    -0.087000000     2.904000000
C    -1.888000000    -0.083000000     4.260000000
O    -1.914000000    -1.114000000     4.936000000
O    -2.195000000     0.939000000     4.746000000
