17
-87.09948
C    -0.607000000     1.946000000     2.085000000
H    -0.969000000     2.931000000     2.365000000
C    -0.384000000     1.641000000     0.761000000
H    -0.414000000     2.454000000     0.040000000
C    -0.089000000     0.339000000     0.367000000
C     0.119000000     0.064000000    -1.091000000
H    -0.689000000    -0.556000000    -1.484000000
H     0.063000000     0.941000000    -1.740000000
H     1.067000000    -0.469000000    -1.184000000
C    -0.217000000    -0.705000000     1.302000000
H    -0.051000000    -1.769000000     1.156000000
C    -0.474000000    -0.420000000     2.614000000
H    -0.652000000    -1.290000000     3.241000000
C    -0.641000000     0.855000000     3.037000000
C    -0.786000000     1.061000000     4.525000000
O    -0.186000000     0.286000000     5.199000000
O    -1.180000000     2.102000000     5.004000000
