17
-86.46370
C    -0.888000000     1.127000000     2.343000000
H    -1.383000000     2.059000000     2.602000000
C    -0.464000000     0.991000000     1.052000000
H    -0.461000000     1.909000000     0.470000000
C    -0.160000000    -0.238000000     0.608000000
C     0.227000000    -0.490000000    -0.862000000
H     0.032000000    -1.536000000    -1.105000000
H    -0.253000000     0.224000000    -1.535000000
H     1.301000000    -0.305000000    -0.931000000
C    -0.382000000    -1.377000000     1.465000000
H    -0.406000000    -2.409000000     1.125000000
C    -0.752000000    -1.185000000     2.822000000
H    -0.931000000    -2.044000000     3.464000000
C    -1.019000000     0.113000000     3.278000000
C    -1.223000000     0.351000000     4.734000000
O    -1.177000000    -0.523000000     5.540000000
O    -1.424000000     1.480000000     5.136000000
