17
-98.44207
C    -1.005000000     0.868000000     2.257000000
H    -1.342000000     1.770000000     2.762000000
C    -0.691000000     0.921000000     0.905000000
H    -0.843000000     1.900000000     0.458000000
C    -0.355000000    -0.233000000     0.285000000
C    -0.123000000    -0.174000000    -1.170000000
H     0.648000000    -0.904000000    -1.425000000
H    -0.964000000    -0.504000000    -1.784000000
H     0.173000000     0.813000000    -1.532000000
C    -0.296000000    -1.424000000     0.938000000
H     0.012000000    -2.303000000     0.379000000
C    -0.536000000    -1.516000000     2.296000000
H    -0.540000000    -2.487000000     2.784000000
C    -0.892000000    -0.340000000     2.990000000
C    -1.030000000    -0.320000000     4.485000000
O    -0.683000000    -1.307000000     5.158000000
O    -1.593000000     0.630000000     4.994000000
