17
-94.36050
C    -1.057000000    -0.643000000     2.320000000
H    -1.934000000    -0.830000000     2.933000000
C    -1.150000000    -0.159000000     1.026000000
H    -2.101000000     0.124000000     0.583000000
C    -0.046000000    -0.118000000     0.170000000
C    -0.237000000     0.307000000    -1.228000000
H    -1.211000000    -0.057000000    -1.562000000
H    -0.212000000     1.395000000    -1.317000000
H     0.626000000    -0.010000000    -1.818000000
C     1.191000000    -0.423000000     0.644000000
H     2.077000000    -0.184000000     0.062000000
C     1.343000000    -0.856000000     1.961000000
H     2.313000000    -1.107000000     2.383000000
C     0.199000000    -0.965000000     2.801000000
C     0.410000000    -1.432000000     4.252000000
O     1.487000000    -1.393000000     4.730000000
O    -0.501000000    -1.963000000     4.873000000
