17
-97.68471
C    -1.102000000    -0.348000000     2.257000000
H    -2.041000000    -0.306000000     2.803000000
C    -1.195000000    -0.213000000     0.895000000
H    -2.198000000    -0.224000000     0.476000000
C    -0.018000000    -0.217000000     0.154000000
C    -0.066000000    -0.275000000    -1.406000000
H    -0.617000000     0.598000000    -1.762000000
H     0.920000000    -0.023000000    -1.801000000
H    -0.400000000    -1.244000000    -1.783000000
C     1.208000000    -0.340000000     0.771000000
H     2.131000000    -0.367000000     0.198000000
C     1.323000000    -0.510000000     2.184000000
H     2.304000000    -0.690000000     2.617000000
C     0.168000000    -0.487000000     2.959000000
C     0.134000000    -0.839000000     4.476000000
O     1.262000000    -1.170000000     4.912000000
O    -0.915000000    -0.816000000     5.020000000
