17
-94.80738
C    -0.520000000    -1.052000000     2.643000000
H    -1.327000000    -1.195000000     3.358000000
C    -0.808000000    -0.743000000     1.293000000
H    -1.844000000    -0.673000000     0.973000000
C     0.202000000    -0.598000000     0.344000000
C    -0.167000000    -0.340000000    -1.045000000
H    -1.019000000    -0.880000000    -1.463000000
H    -0.418000000     0.701000000    -1.257000000
H     0.770000000    -0.527000000    -1.573000000
C     1.522000000    -0.586000000     0.785000000
H     2.321000000    -0.246000000     0.130000000
C     1.817000000    -0.890000000     2.140000000
H     2.837000000    -1.013000000     2.495000000
C     0.836000000    -1.075000000     3.094000000
C     1.124000000    -1.378000000     4.506000000
O     2.253000000    -1.142000000     4.928000000
O     0.232000000    -1.621000000     5.381000000
