17
-94.78479
C    -0.815000000    -0.723000000     2.251000000
H    -1.606000000    -0.922000000     2.970000000
C    -1.063000000    -0.354000000     0.928000000
H    -1.995000000    -0.156000000     0.405000000
C     0.015000000    -0.137000000     0.025000000
C    -0.209000000    -0.179000000    -1.445000000
H     0.688000000    -0.403000000    -2.025000000
H    -0.976000000    -0.921000000    -1.678000000
H    -0.530000000     0.824000000    -1.733000000
C     1.332000000    -0.203000000     0.443000000
H     2.193000000    -0.090000000    -0.210000000
C     1.569000000    -0.421000000     1.820000000
H     2.622000000    -0.443000000     2.089000000
C     0.517000000    -0.725000000     2.708000000
C     0.827000000    -1.145000000     4.133000000
O     1.942000000    -1.024000000     4.660000000
O    -0.098000000    -1.480000000     4.903000000
