17
-91.68853
C     0.221000000     0.385000000     2.598000000
H    -0.431000000     0.551000000     3.452000000
C    -0.443000000     0.127000000     1.367000000
H    -1.517000000    -0.038000000     1.386000000
C     0.318000000    -0.097000000     0.207000000
C    -0.357000000    -0.312000000    -1.144000000
H     0.023000000     0.324000000    -1.946000000
H    -0.345000000    -1.358000000    -1.457000000
H    -1.396000000     0.022000000    -1.095000000
C     1.752000000     0.087000000     0.311000000
H     2.396000000     0.022000000    -0.563000000
C     2.377000000     0.444000000     1.526000000
H     3.429000000     0.709000000     1.591000000
C     1.638000000     0.528000000     2.701000000
C     2.269000000     0.861000000     4.013000000
O     3.436000000     0.837000000     4.188000000
O     1.538000000     0.981000000     4.987000000
