17
-86.33248
C    -1.273000000    -0.158000000     2.043000000
H    -1.761000000     0.326000000     2.885000000
C    -0.667000000     0.534000000     1.036000000
H    -0.805000000     1.607000000     1.144000000
C     0.095000000    -0.091000000     0.127000000
C     0.848000000     0.719000000    -0.907000000
H     0.084000000     1.100000000    -1.588000000
H     1.459000000     1.526000000    -0.498000000
H     1.584000000     0.139000000    -1.468000000
C     0.154000000    -1.455000000     0.091000000
H     0.786000000    -1.926000000    -0.657000000
C    -0.438000000    -2.175000000     1.122000000
H    -0.220000000    -3.233000000     1.241000000
C    -1.133000000    -1.555000000     2.135000000
C    -1.439000000    -2.373000000     3.358000000
O    -1.183000000    -3.581000000     3.372000000
O    -2.024000000    -1.897000000     4.240000000
