17
-91.71699
C     0.453000000     2.562000000     2.445000000
H     0.361000000     3.609000000     2.723000000
C    -0.002000000     2.130000000     1.238000000
H    -0.341000000     2.849000000     0.497000000
C     0.106000000     0.822000000     0.889000000
C    -0.378000000     0.170000000    -0.410000000
H     0.293000000    -0.665000000    -0.622000000
H    -1.415000000    -0.165000000    -0.346000000
H    -0.214000000     0.885000000    -1.219000000
C     0.642000000    -0.017000000     1.869000000
H     0.620000000    -1.088000000     1.680000000
C     1.199000000     0.404000000     3.053000000
H     1.749000000    -0.353000000     3.605000000
C     1.022000000     1.738000000     3.438000000
C     1.336000000     2.279000000     4.753000000
O     2.081000000     1.635000000     5.442000000
O     0.882000000     3.350000000     5.097000000
