17
-91.84613
C     0.011000000     2.114000000     1.165000000
H     0.085000000     3.199000000     1.169000000
C     0.073000000     1.400000000    -0.040000000
H     0.265000000     1.954000000    -0.955000000
C     0.018000000     0.024000000     0.027000000
C     0.219000000    -0.769000000    -1.225000000
H    -0.239000000    -1.760000000    -1.231000000
H    -0.297000000    -0.122000000    -1.938000000
H     1.287000000    -0.864000000    -1.434000000
C    -0.301000000    -0.645000000     1.200000000
H    -0.527000000    -1.699000000     1.340000000
C    -0.530000000     0.152000000     2.334000000
H    -0.849000000    -0.359000000     3.238000000
C    -0.320000000     1.527000000     2.343000000
C    -0.569000000     2.390000000     3.555000000
O    -1.067000000     1.857000000     4.504000000
O    -0.304000000     3.551000000     3.574000000
