17
-98.65220
C    -0.571000000     2.247000000     1.527000000
H    -0.687000000     3.328000000     1.522000000
C    -0.330000000     1.561000000     0.322000000
H    -0.010000000     2.114000000    -0.557000000
C    -0.222000000     0.212000000     0.311000000
C    -0.084000000    -0.557000000    -0.967000000
H     0.895000000    -1.035000000    -0.889000000
H    -0.899000000    -1.244000000    -1.202000000
H     0.075000000     0.139000000    -1.794000000
C    -0.417000000    -0.515000000     1.530000000
H    -0.371000000    -1.600000000     1.580000000
C    -0.794000000     0.150000000     2.689000000
H    -0.926000000    -0.419000000     3.606000000
C    -0.842000000     1.543000000     2.704000000
C    -1.020000000     2.235000000     4.060000000
O    -1.314000000     1.573000000     5.026000000
O    -0.776000000     3.422000000     4.107000000
