17
-87.28680
C    -1.159000000     0.126000000     2.164000000
H    -1.454000000     0.727000000     3.020000000
C    -0.421000000     0.713000000     1.114000000
H    -0.264000000     1.787000000     1.176000000
C    -0.110000000    -0.033000000     0.022000000
C     0.572000000     0.469000000    -1.177000000
H    -0.185000000     0.472000000    -1.964000000
H     0.933000000     1.499000000    -1.159000000
H     1.454000000    -0.153000000    -1.347000000
C    -0.375000000    -1.432000000     0.046000000
H    -0.038000000    -2.151000000    -0.696000000
C    -1.001000000    -2.057000000     1.147000000
H    -1.237000000    -3.117000000     1.181000000
C    -1.491000000    -1.212000000     2.142000000
C    -2.431000000    -1.833000000     3.111000000
O    -2.741000000    -3.015000000     3.148000000
O    -2.789000000    -1.164000000     4.016000000
