17
-100.81988
C     0.087000000     2.409000000     1.187000000
H     0.507000000     3.404000000     1.067000000
C     0.005000000     1.514000000     0.141000000
H     0.339000000     1.717000000    -0.873000000
C    -0.318000000     0.154000000     0.382000000
C    -0.552000000    -0.722000000    -0.862000000
H     0.362000000    -1.290000000    -1.048000000
H    -1.434000000    -1.350000000    -0.715000000
H    -0.783000000    -0.079000000    -1.714000000
C    -0.675000000    -0.236000000     1.651000000
H    -0.906000000    -1.282000000     1.837000000
C    -0.721000000     0.709000000     2.681000000
H    -0.829000000     0.396000000     3.716000000
C    -0.384000000     2.039000000     2.464000000
C    -0.336000000     3.021000000     3.651000000
O    -0.370000000     2.556000000     4.795000000
O    -0.299000000     4.241000000     3.463000000
