17
-92.10932
C    -0.467000000     2.461000000     1.183000000
H    -0.488000000     3.546000000     1.132000000
C    -0.262000000     1.666000000     0.065000000
H    -0.319000000     2.105000000    -0.928000000
C    -0.271000000     0.277000000     0.179000000
C     0.018000000    -0.628000000    -1.006000000
H     0.780000000    -1.379000000    -0.792000000
H    -0.803000000    -1.267000000    -1.336000000
H     0.473000000     0.014000000    -1.764000000
C    -0.378000000    -0.263000000     1.444000000
H    -0.109000000    -1.297000000     1.642000000
C    -0.546000000     0.542000000     2.584000000
H    -0.596000000     0.101000000     3.576000000
C    -0.722000000     1.933000000     2.454000000
C    -0.891000000     2.848000000     3.685000000
O    -0.715000000     2.473000000     4.835000000
O    -1.044000000     4.048000000     3.555000000
