17
-90.43514
C     1.209000000     2.522000000     1.998000000
H     1.723000000     3.478000000     1.945000000
C     0.743000000     1.901000000     0.871000000
H     1.093000000     2.207000000    -0.111000000
C    -0.048000000     0.758000000     0.977000000
C    -0.593000000     0.203000000    -0.280000000
H    -0.612000000    -0.886000000    -0.214000000
H    -1.634000000     0.483000000    -0.456000000
H    -0.029000000     0.403000000    -1.194000000
C    -0.238000000     0.073000000     2.198000000
H    -0.818000000    -0.827000000     2.389000000
C     0.273000000     0.783000000     3.333000000
H     0.127000000     0.349000000     4.319000000
C     0.928000000     2.002000000     3.263000000
C     1.567000000     2.569000000     4.493000000
O     1.622000000     2.001000000     5.555000000
O     2.148000000     3.621000000     4.434000000
