17
-94.50454
C     1.729000000     2.486000000     1.916000000
H     2.229000000     3.384000000     1.562000000
C     1.268000000     1.714000000     0.878000000
H     1.547000000     2.090000000    -0.104000000
C     0.508000000     0.583000000     1.088000000
C     0.166000000    -0.258000000    -0.166000000
H     0.208000000     0.391000000    -1.043000000
H     0.892000000    -1.072000000    -0.223000000
H    -0.748000000    -0.855000000    -0.174000000
C     0.290000000     0.156000000     2.393000000
H    -0.290000000    -0.750000000     2.551000000
C     0.776000000     0.843000000     3.466000000
H     0.638000000     0.549000000     4.503000000
C     1.451000000     2.040000000     3.240000000
C     1.999000000     2.862000000     4.436000000
O     1.728000000     2.531000000     5.567000000
O     2.750000000     3.845000000     4.260000000
