17
-88.28570
C     1.410000000     2.176000000     1.264000000
H     1.756000000     3.205000000     1.304000000
C     0.668000000     1.607000000     0.212000000
H     0.534000000     2.115000000    -0.740000000
C     0.132000000     0.342000000     0.273000000
C    -0.747000000    -0.190000000    -0.767000000
H    -1.754000000    -0.394000000    -0.395000000
H    -0.907000000     0.588000000    -1.516000000
H    -0.379000000    -1.076000000    -1.288000000
C     0.419000000    -0.407000000     1.393000000
H    -0.061000000    -1.373000000     1.529000000
C     1.300000000     0.010000000     2.334000000
H     1.516000000    -0.752000000     3.079000000
C     1.758000000     1.326000000     2.340000000
C     2.704000000     1.760000000     3.419000000
O     3.376000000     0.956000000     3.981000000
O     2.995000000     2.951000000     3.687000000
