17
-93.95019
C     1.516000000     2.118000000     0.831000000
H     2.337000000     2.737000000     0.475000000
C     1.000000000     1.210000000    -0.128000000
H     1.275000000     1.280000000    -1.177000000
C    -0.049000000     0.364000000     0.236000000
C    -0.686000000    -0.377000000    -0.901000000
H    -0.895000000     0.298000000    -1.733000000
H     0.067000000    -1.075000000    -1.274000000
H    -1.526000000    -0.997000000    -0.581000000
C    -0.488000000     0.292000000     1.548000000
H    -1.219000000    -0.492000000     1.728000000
C     0.153000000     1.098000000     2.510000000
H    -0.027000000     0.995000000     3.577000000
C     1.085000000     2.014000000     2.164000000
C     1.842000000     2.717000000     3.263000000
O     1.542000000     2.751000000     4.435000000
O     2.898000000     3.312000000     2.938000000
