17
-93.27498
C     1.781000000     1.783000000     0.879000000
H     2.619000000     2.420000000     0.608000000
C     0.957000000     1.202000000    -0.088000000
H     1.197000000     1.331000000    -1.140000000
C    -0.033000000     0.299000000     0.322000000
C    -0.900000000    -0.407000000    -0.651000000
H    -0.406000000    -0.888000000    -1.499000000
H    -1.490000000    -1.149000000    -0.109000000
H    -1.510000000     0.352000000    -1.145000000
C    -0.194000000     0.070000000     1.680000000
H    -1.006000000    -0.563000000     2.029000000
C     0.546000000     0.795000000     2.640000000
H     0.359000000     0.626000000     3.698000000
C     1.663000000     1.565000000     2.245000000
C     2.667000000     2.187000000     3.183000000
O     2.531000000     2.094000000     4.363000000
O     3.773000000     2.584000000     2.791000000
