17
-90.40690
C     1.655000000     1.821000000     0.958000000
H     2.410000000     2.580000000     0.770000000
C     1.007000000     1.204000000    -0.134000000
H     1.420000000     1.458000000    -1.107000000
C     0.093000000     0.210000000     0.177000000
C    -0.545000000    -0.503000000    -0.911000000
H    -0.874000000     0.190000000    -1.687000000
H     0.129000000    -1.255000000    -1.327000000
H    -1.452000000    -0.952000000    -0.501000000
C    -0.230000000    -0.191000000     1.448000000
H    -0.991000000    -0.955000000     1.585000000
C     0.407000000     0.502000000     2.517000000
H    -0.007000000     0.409000000     3.518000000
C     1.345000000     1.572000000     2.298000000
C     2.017000000     2.334000000     3.470000000
O     1.634000000     2.119000000     4.615000000
O     3.113000000     2.973000000     3.359000000
