17
-85.35024
C     0.492000000     0.302000000     2.712000000
H     1.266000000    -0.151000000     3.326000000
C     0.274000000    -0.178000000     1.426000000
H     0.548000000    -1.203000000     1.190000000
C    -0.412000000     0.454000000     0.361000000
C    -0.610000000    -0.140000000    -0.993000000
H    -0.558000000    -1.231000000    -0.978000000
H    -1.579000000     0.013000000    -1.471000000
H     0.172000000     0.266000000    -1.638000000
C    -0.817000000     1.723000000     0.672000000
H    -1.301000000     2.388000000    -0.038000000
C    -0.687000000     2.262000000     2.009000000
H    -0.920000000     3.322000000     2.072000000
C     0.092000000     1.667000000     3.007000000
C     0.661000000     2.350000000     4.218000000
O     0.687000000     3.577000000     4.277000000
O     1.238000000     1.720000000     5.039000000
