17
-94.47854
C     1.687000000    -0.026000000     2.111000000
H     2.424000000    -0.572000000     2.694000000
C     1.085000000    -0.592000000     1.020000000
H     1.250000000    -1.647000000     0.814000000
C     0.132000000     0.044000000     0.208000000
C    -0.633000000    -0.524000000    -0.946000000
H    -1.580000000    -0.962000000    -0.622000000
H    -0.791000000     0.132000000    -1.805000000
H    -0.096000000    -1.404000000    -1.306000000
C    -0.184000000     1.328000000     0.613000000
H    -0.961000000     1.960000000     0.189000000
C     0.504000000     1.994000000     1.659000000
H     0.331000000     3.049000000     1.859000000
C     1.453000000     1.277000000     2.369000000
C     2.241000000     1.985000000     3.476000000
O     2.064000000     3.234000000     3.698000000
O     3.176000000     1.427000000     3.983000000
