17
-87.52325
C     1.675000000     0.565000000     1.903000000
H     2.529000000     0.211000000     2.475000000
C     1.218000000    -0.213000000     0.836000000
H     1.664000000    -1.167000000     0.565000000
C     0.141000000     0.263000000     0.105000000
C    -0.485000000    -0.622000000    -0.943000000
H     0.181000000    -1.424000000    -1.269000000
H    -1.412000000    -0.981000000    -0.490000000
H    -0.650000000    -0.033000000    -1.848000000
C    -0.395000000     1.521000000     0.382000000
H    -1.182000000     2.003000000    -0.192000000
C     0.061000000     2.248000000     1.470000000
H    -0.365000000     3.245000000     1.552000000
C     1.167000000     1.877000000     2.208000000
C     1.658000000     2.668000000     3.297000000
O     1.083000000     3.661000000     3.629000000
O     2.608000000     2.323000000     3.937000000
