17
-83.03906
C     1.778000000    -2.976000000     1.393000000
H     1.666000000    -4.021000000     1.670000000
C     0.748000000    -2.214000000     0.935000000
H    -0.227000000    -2.691000000     0.891000000
C     0.976000000    -0.887000000     0.588000000
C    -0.134000000    -0.148000000    -0.151000000
H    -0.129000000    -0.307000000    -1.231000000
H    -1.131000000    -0.418000000     0.205000000
H     0.006000000     0.922000000     0.020000000
C     2.233000000    -0.351000000     0.736000000
H     2.386000000     0.700000000     0.505000000
C     3.324000000    -1.163000000     1.160000000
H     4.357000000    -0.827000000     1.188000000
C     3.073000000    -2.478000000     1.518000000
C     4.146000000    -3.343000000     2.022000000
O     5.002000000    -2.767000000     2.685000000
O     4.124000000    -4.523000000     2.272000000
