17
-95.02749
C    -3.005000000    -0.009000000     1.659000000
H    -3.516000000     0.645000000     2.361000000
C    -1.894000000     0.555000000     0.965000000
H    -1.639000000     1.604000000     1.095000000
C    -1.134000000    -0.250000000     0.111000000
C     0.153000000     0.297000000    -0.463000000
H    -0.085000000     0.731000000    -1.436000000
H     0.667000000     1.104000000     0.064000000
H     0.825000000    -0.552000000    -0.608000000
C    -1.412000000    -1.647000000     0.055000000
H    -0.760000000    -2.326000000    -0.490000000
C    -2.478000000    -2.197000000     0.787000000
H    -2.674000000    -3.264000000     0.719000000
C    -3.293000000    -1.385000000     1.600000000
C    -4.422000000    -1.953000000     2.418000000
O    -4.486000000    -3.155000000     2.603000000
O    -5.017000000    -1.222000000     3.187000000
