17
-101.59501
C    -2.398000000     0.232000000     1.255000000
H    -3.140000000     0.813000000     1.797000000
C    -1.234000000     0.682000000     0.658000000
H    -1.002000000     1.744000000     0.692000000
C    -0.406000000    -0.175000000    -0.053000000
C     0.707000000     0.360000000    -0.917000000
H     0.935000000     1.413000000    -0.737000000
H     1.632000000    -0.180000000    -0.704000000
H     0.396000000     0.298000000    -1.962000000
C    -0.756000000    -1.544000000    -0.166000000
H    -0.170000000    -2.235000000    -0.767000000
C    -1.947000000    -2.046000000     0.432000000
H    -2.204000000    -3.100000000     0.370000000
C    -2.723000000    -1.114000000     1.185000000
C    -4.049000000    -1.580000000     1.712000000
O    -4.577000000    -2.600000000     1.283000000
O    -4.652000000    -0.816000000     2.487000000
