17
-100.51203
C    -2.333000000     0.066000000     1.468000000
H    -2.916000000     0.714000000     2.117000000
C    -1.135000000     0.543000000     0.971000000
H    -0.741000000     1.493000000     1.323000000
C    -0.469000000    -0.195000000    -0.001000000
C     0.826000000     0.365000000    -0.525000000
H     1.055000000    -0.150000000    -1.461000000
H     0.882000000     1.440000000    -0.709000000
H     1.648000000     0.202000000     0.175000000
C    -1.019000000    -1.383000000    -0.483000000
H    -0.383000000    -1.880000000    -1.212000000
C    -2.219000000    -1.866000000     0.031000000
H    -2.577000000    -2.845000000    -0.275000000
C    -2.853000000    -1.153000000     1.093000000
C    -4.139000000    -1.732000000     1.655000000
O    -4.482000000    -2.830000000     1.302000000
O    -4.730000000    -1.084000000     2.503000000
