17
-100.43151
C    -2.234000000     0.022000000     1.529000000
H    -2.824000000     0.562000000     2.265000000
C    -0.967000000     0.488000000     1.152000000
H    -0.597000000     1.476000000     1.413000000
C    -0.245000000    -0.129000000     0.106000000
C     1.125000000     0.355000000    -0.424000000
H     1.434000000    -0.180000000    -1.325000000
H     1.075000000     1.426000000    -0.631000000
H     1.886000000     0.179000000     0.338000000
C    -0.807000000    -1.198000000    -0.564000000
H    -0.239000000    -1.731000000    -1.322000000
C    -2.067000000    -1.731000000    -0.160000000
H    -2.555000000    -2.572000000    -0.644000000
C    -2.782000000    -1.165000000     0.906000000
C    -4.078000000    -1.691000000     1.436000000
O    -4.655000000    -2.500000000     0.674000000
O    -4.471000000    -1.380000000     2.544000000
