17
-94.92211
C    -2.446000000     0.192000000     1.336000000
H    -2.838000000     0.824000000     2.128000000
C    -1.235000000     0.485000000     0.729000000
H    -0.677000000     1.389000000     0.958000000
C    -0.766000000    -0.428000000    -0.199000000
C     0.569000000     0.017000000    -0.825000000
H     1.309000000     0.277000000    -0.065000000
H     1.023000000    -0.818000000    -1.362000000
H     0.504000000     0.826000000    -1.556000000
C    -1.515000000    -1.448000000    -0.667000000
H    -1.149000000    -2.202000000    -1.359000000
C    -2.761000000    -1.699000000    -0.134000000
H    -3.380000000    -2.542000000    -0.431000000
C    -3.251000000    -0.909000000     0.914000000
C    -4.580000000    -1.117000000     1.536000000
O    -5.230000000    -2.053000000     1.150000000
O    -4.863000000    -0.530000000     2.592000000
