17
-95.05248
C    -2.600000000    -0.606000000     0.842000000
H    -3.543000000    -0.127000000     1.094000000
C    -1.449000000     0.174000000     0.533000000
H    -1.550000000     1.250000000     0.645000000
C    -0.251000000    -0.450000000     0.096000000
C     1.004000000     0.271000000    -0.220000000
H     1.673000000     0.180000000     0.638000000
H     1.532000000    -0.083000000    -1.108000000
H     0.835000000     1.336000000    -0.392000000
C    -0.224000000    -1.828000000     0.039000000
H     0.685000000    -2.373000000    -0.202000000
C    -1.371000000    -2.600000000     0.323000000
H    -1.337000000    -3.682000000     0.226000000
C    -2.580000000    -2.014000000     0.730000000
C    -3.813000000    -2.824000000     1.060000000
O    -3.712000000    -3.982000000     1.416000000
O    -4.892000000    -2.341000000     1.084000000
