17
-86.05796
C    -1.861000000     0.250000000     1.872000000
H    -1.974000000     0.594000000     2.897000000
C    -0.668000000     0.474000000     1.254000000
H     0.119000000     0.928000000     1.850000000
C    -0.433000000    -0.060000000    -0.009000000
C     0.768000000     0.353000000    -0.861000000
H     0.707000000     1.400000000    -1.166000000
H     1.686000000     0.329000000    -0.270000000
H     0.879000000    -0.172000000    -1.812000000
C    -1.369000000    -0.925000000    -0.494000000
H    -1.174000000    -1.404000000    -1.450000000
C    -2.517000000    -1.221000000     0.246000000
H    -3.278000000    -1.893000000    -0.141000000
C    -2.774000000    -0.657000000     1.463000000
C    -3.879000000    -1.079000000     2.340000000
O    -4.623000000    -2.035000000     2.063000000
O    -4.033000000    -0.611000000     3.432000000
