17
-93.16671
C     0.469000000    -2.704000000     0.092000000
H     0.214000000    -3.668000000    -0.341000000
C    -0.276000000    -1.570000000    -0.317000000
H    -1.096000000    -1.721000000    -1.015000000
C     0.089000000    -0.227000000     0.069000000
C    -0.629000000     0.995000000    -0.509000000
H    -0.648000000     0.944000000    -1.599000000
H    -1.629000000     0.766000000    -0.133000000
H    -0.251000000     1.966000000    -0.183000000
C     1.183000000    -0.056000000     0.932000000
H     1.527000000     0.879000000     1.366000000
C     1.938000000    -1.235000000     1.162000000
H     2.876000000    -1.118000000     1.698000000
C     1.600000000    -2.526000000     0.875000000
C     2.289000000    -3.720000000     1.446000000
O     3.367000000    -3.522000000     1.976000000
O     1.851000000    -4.823000000     1.165000000
