17
-93.66928
C    -1.292000000    -0.693000000     1.999000000
H    -1.450000000    -0.577000000     3.068000000
C    -0.675000000     0.308000000     1.278000000
H    -0.435000000     1.229000000     1.802000000
C    -0.335000000     0.022000000    -0.034000000
C     0.430000000     1.013000000    -0.860000000
H     0.327000000     0.708000000    -1.904000000
H    -0.006000000     1.985000000    -0.623000000
H     1.493000000     1.040000000    -0.610000000
C    -0.655000000    -1.200000000    -0.558000000
H    -0.404000000    -1.316000000    -1.609000000
C    -1.348000000    -2.213000000     0.111000000
H    -1.500000000    -3.148000000    -0.422000000
C    -1.716000000    -1.931000000     1.397000000
C    -2.463000000    -2.943000000     2.231000000
O    -2.736000000    -4.094000000     1.808000000
O    -2.470000000    -2.737000000     3.416000000
