17
-93.55794
C    -1.252000000    -0.338000000     2.293000000
H    -1.551000000    -0.054000000     3.299000000
C    -0.435000000     0.522000000     1.496000000
H    -0.222000000     1.486000000     1.952000000
C    -0.070000000     0.109000000     0.219000000
C     0.616000000     1.076000000    -0.661000000
H    -0.047000000     1.792000000    -1.151000000
H     1.446000000     1.556000000    -0.139000000
H     1.213000000     0.643000000    -1.466000000
C    -0.472000000    -1.130000000    -0.268000000
H    -0.108000000    -1.484000000    -1.229000000
C    -1.370000000    -1.930000000     0.488000000
H    -1.824000000    -2.817000000     0.054000000
C    -1.699000000    -1.606000000     1.795000000
C    -2.593000000    -2.475000000     2.549000000
O    -3.472000000    -3.115000000     2.005000000
O    -2.499000000    -2.539000000     3.752000000
