17
-87.91206
C    -2.131000000    -0.380000000     2.305000000
H    -2.438000000    -0.025000000     3.286000000
C    -1.193000000     0.363000000     1.625000000
H    -0.610000000     1.236000000     1.907000000
C    -0.985000000     0.009000000     0.267000000
C     0.052000000     0.897000000    -0.459000000
H     0.743000000     1.368000000     0.244000000
H     0.809000000     0.348000000    -1.022000000
H    -0.411000000     1.593000000    -1.161000000
C    -1.536000000    -1.149000000    -0.332000000
H    -1.144000000    -1.466000000    -1.295000000
C    -2.364000000    -1.896000000     0.463000000
H    -2.579000000    -2.922000000     0.176000000
C    -2.822000000    -1.487000000     1.739000000
C    -3.839000000    -2.212000000     2.568000000
O    -4.501000000    -3.046000000     2.022000000
O    -4.035000000    -2.037000000     3.815000000
