17
-91.91838
C    -1.556000000    -0.083000000     1.984000000
H    -1.680000000     0.305000000     2.992000000
C    -0.572000000     0.531000000     1.200000000
H    -0.088000000     1.453000000     1.510000000
C    -0.318000000     0.094000000    -0.064000000
C     0.602000000     0.907000000    -1.041000000
H     1.622000000     0.977000000    -0.658000000
H     0.567000000     0.640000000    -2.100000000
H     0.182000000     1.914000000    -0.994000000
C    -1.074000000    -0.968000000    -0.544000000
H    -0.905000000    -1.299000000    -1.566000000
C    -1.989000000    -1.651000000     0.207000000
H    -2.559000000    -2.482000000    -0.200000000
C    -2.260000000    -1.187000000     1.525000000
C    -3.293000000    -1.888000000     2.300000000
O    -4.013000000    -2.671000000     1.744000000
O    -3.342000000    -1.753000000     3.493000000
