17
-93.48717
C    -1.486000000    -0.895000000     2.705000000
H    -1.597000000    -0.892000000     3.786000000
C    -0.545000000    -0.076000000     2.046000000
H     0.112000000     0.593000000     2.595000000
C    -0.491000000    -0.096000000     0.625000000
C     0.420000000     0.812000000    -0.172000000
H     0.979000000     1.337000000     0.606000000
H     1.086000000     0.169000000    -0.750000000
H    -0.181000000     1.587000000    -0.653000000
C    -1.314000000    -0.874000000    -0.111000000
H    -1.238000000    -0.988000000    -1.189000000
C    -2.269000000    -1.658000000     0.567000000
H    -2.971000000    -2.236000000    -0.028000000
C    -2.415000000    -1.626000000     1.984000000
C    -3.476000000    -2.512000000     2.696000000
O    -4.110000000    -3.334000000     2.074000000
O    -3.687000000    -2.476000000     3.918000000
