17
-97.74133
C     0.407000000    -2.623000000     0.732000000
H     0.097000000    -3.639000000     0.504000000
C    -0.328000000    -1.542000000     0.246000000
H    -1.265000000    -1.693000000    -0.284000000
C     0.134000000    -0.250000000     0.502000000
C    -0.440000000     0.960000000    -0.112000000
H     0.002000000     1.910000000     0.198000000
H    -0.417000000     0.824000000    -1.195000000
H    -1.469000000     1.119000000     0.216000000
C     1.228000000    -0.018000000     1.309000000
H     1.637000000     0.975000000     1.474000000
C     1.982000000    -1.126000000     1.775000000
H     2.953000000    -0.920000000     2.219000000
C     1.544000000    -2.438000000     1.519000000
C     2.350000000    -3.616000000     1.965000000
O     3.460000000    -3.465000000     2.526000000
O     2.060000000    -4.779000000     1.675000000
