17
-96.64160
C    -1.110000000    -0.890000000     1.901000000
H    -1.243000000    -0.717000000     2.966000000
C    -0.252000000    -0.004000000     1.235000000
H     0.301000000     0.676000000     1.878000000
C    -0.102000000    -0.166000000    -0.141000000
C     0.791000000     0.837000000    -0.847000000
H     0.749000000     1.844000000    -0.428000000
H     1.811000000     0.486000000    -1.015000000
H     0.425000000     0.958000000    -1.868000000
C    -0.826000000    -1.144000000    -0.889000000
H    -0.768000000    -1.257000000    -1.969000000
C    -1.781000000    -1.922000000    -0.175000000
H    -2.424000000    -2.592000000    -0.740000000
C    -1.866000000    -1.855000000     1.236000000
C    -2.813000000    -2.703000000     2.017000000
O    -3.465000000    -3.553000000     1.461000000
O    -2.911000000    -2.603000000     3.234000000
