17
-101.37691
C    -1.452000000    -1.492000000     0.957000000
H    -1.625000000    -1.818000000     1.979000000
C    -0.506000000    -0.492000000     0.769000000
H    -0.002000000    -0.051000000     1.625000000
C    -0.206000000    -0.089000000    -0.528000000
C     0.837000000     1.005000000    -0.821000000
H     1.828000000     0.573000000    -0.672000000
H     0.781000000     1.397000000    -1.839000000
H     0.724000000     1.809000000    -0.090000000
C    -0.780000000    -0.685000000    -1.643000000
H    -0.610000000    -0.344000000    -2.660000000
C    -1.756000000    -1.604000000    -1.451000000
H    -2.325000000    -2.048000000    -2.264000000
C    -2.154000000    -1.954000000    -0.161000000
C    -3.265000000    -2.933000000     0.009000000
O    -3.868000000    -3.383000000    -0.975000000
O    -3.610000000    -3.203000000     1.160000000
