17
-93.58745
C    -1.512000000    -1.338000000     1.044000000
H    -1.614000000    -1.875000000     1.983000000
C    -0.492000000    -0.398000000     0.996000000
H     0.030000000    -0.140000000     1.914000000
C    -0.175000000     0.295000000    -0.195000000
C     0.883000000     1.324000000    -0.242000000
H     1.601000000     0.971000000     0.501000000
H     1.318000000     1.432000000    -1.238000000
H     0.516000000     2.305000000     0.067000000
C    -0.917000000    -0.046000000    -1.320000000
H    -0.726000000     0.284000000    -2.338000000
C    -1.961000000    -1.016000000    -1.251000000
H    -2.458000000    -1.257000000    -2.187000000
C    -2.251000000    -1.685000000    -0.093000000
C    -3.301000000    -2.803000000    -0.018000000
O    -3.966000000    -3.157000000    -0.950000000
O    -3.519000000    -3.260000000     1.058000000
