17
-89.08658
C    -2.212000000    -1.071000000     0.462000000
H    -2.830000000    -1.075000000     1.356000000
C    -1.076000000    -0.245000000     0.487000000
H    -0.693000000     0.143000000     1.427000000
C    -0.248000000    -0.166000000    -0.629000000
C     0.979000000     0.635000000    -0.512000000
H     1.737000000     0.048000000     0.011000000
H     1.341000000     0.879000000    -1.513000000
H     0.937000000     1.553000000     0.078000000
C    -0.676000000    -0.762000000    -1.847000000
H    -0.061000000    -0.680000000    -2.740000000
C    -1.868000000    -1.408000000    -1.932000000
H    -2.157000000    -1.869000000    -2.873000000
C    -2.660000000    -1.615000000    -0.762000000
C    -3.875000000    -2.407000000    -0.760000000
O    -4.082000000    -3.253000000    -1.613000000
O    -4.556000000    -2.497000000     0.236000000
