17
-86.25068
C    -1.512000000    -1.620000000     1.705000000
H    -1.740000000    -1.867000000     2.739000000
C    -0.485000000    -0.666000000     1.468000000
H     0.031000000    -0.273000000     2.340000000
C    -0.191000000    -0.307000000     0.191000000
C     0.955000000     0.615000000     0.168000000
H     1.837000000     0.342000000     0.751000000
H     1.194000000     0.728000000    -0.892000000
H     0.522000000     1.573000000     0.463000000
C    -0.901000000    -0.805000000    -0.887000000
H    -0.495000000    -0.436000000    -1.825000000
C    -1.900000000    -1.739000000    -0.640000000
H    -2.357000000    -2.104000000    -1.557000000
C    -2.226000000    -2.198000000     0.629000000
C    -3.414000000    -3.172000000     0.845000000
O    -3.934000000    -3.686000000    -0.082000000
O    -4.019000000    -3.131000000     1.934000000
