17
-98.06087
C     0.361000000    -2.591000000    -0.220000000
H     0.043000000    -3.591000000    -0.500000000
C    -0.413000000    -1.448000000    -0.471000000
H    -1.388000000    -1.584000000    -0.931000000
C     0.138000000    -0.158000000    -0.244000000
C    -0.616000000     1.060000000    -0.569000000
H    -0.261000000     1.951000000    -0.046000000
H    -0.430000000     1.383000000    -1.595000000
H    -1.690000000     0.900000000    -0.455000000
C     1.368000000     0.031000000     0.379000000
H     1.794000000     1.017000000     0.545000000
C     2.084000000    -1.101000000     0.638000000
H     3.084000000    -0.969000000     1.042000000
C     1.627000000    -2.439000000     0.493000000
C     2.535000000    -3.653000000     0.683000000
O     3.703000000    -3.469000000     1.029000000
O     2.048000000    -4.780000000     0.553000000
