17
-97.14417
C    -0.854000000    -2.214000000     1.046000000
H    -0.925000000    -2.723000000     2.003000000
C     0.045000000    -1.172000000     0.963000000
H     0.674000000    -0.829000000     1.780000000
C     0.238000000    -0.484000000    -0.209000000
C     1.256000000     0.628000000    -0.385000000
H     1.038000000     1.352000000     0.403000000
H     2.236000000     0.162000000    -0.268000000
H     1.307000000     1.186000000    -1.323000000
C    -0.492000000    -0.882000000    -1.367000000
H    -0.498000000    -0.255000000    -2.256000000
C    -1.402000000    -1.965000000    -1.274000000
H    -1.936000000    -2.297000000    -2.161000000
C    -1.546000000    -2.632000000    -0.107000000
C    -2.612000000    -3.725000000    -0.021000000
O    -3.143000000    -4.206000000    -1.037000000
O    -3.061000000    -4.043000000     1.067000000
