17
-91.36881
C    -1.413000000    -1.948000000     0.303000000
H    -1.962000000    -2.678000000     0.892000000
C    -0.229000000    -1.306000000     0.767000000
H     0.250000000    -1.590000000     1.700000000
C     0.148000000    -0.168000000     0.049000000
C     1.240000000     0.805000000     0.539000000
H     1.900000000     1.113000000    -0.275000000
H     0.772000000     1.758000000     0.795000000
H     1.797000000     0.411000000     1.391000000
C    -0.484000000     0.288000000    -1.093000000
H    -0.098000000     1.197000000    -1.549000000
C    -1.590000000    -0.424000000    -1.560000000
H    -2.123000000    -0.098000000    -2.449000000
C    -2.077000000    -1.501000000    -0.890000000
C    -3.299000000    -2.147000000    -1.477000000
O    -3.969000000    -1.500000000    -2.242000000
O    -3.685000000    -3.150000000    -0.965000000
