17
-91.13742
C    -1.317000000    -2.798000000     0.927000000
H    -1.650000000    -3.299000000     1.832000000
C    -0.747000000    -1.529000000     1.057000000
H    -0.729000000    -1.115000000     2.062000000
C    -0.356000000    -0.778000000    -0.102000000
C     0.235000000     0.567000000     0.032000000
H     1.192000000     0.448000000     0.544000000
H     0.193000000     1.034000000    -0.954000000
H    -0.435000000     1.200000000     0.619000000
C    -0.583000000    -1.348000000    -1.292000000
H    -0.369000000    -0.778000000    -2.192000000
C    -1.120000000    -2.649000000    -1.469000000
H    -1.231000000    -3.087000000    -2.458000000
C    -1.530000000    -3.381000000    -0.369000000
C    -2.185000000    -4.722000000    -0.494000000
O    -2.696000000    -4.992000000    -1.554000000
O    -2.456000000    -5.481000000     0.432000000
