17
-94.66386
C    -0.984000000    -2.715000000     0.714000000
H    -1.198000000    -3.438000000     1.497000000
C    -0.318000000    -1.482000000     1.043000000
H     0.052000000    -1.265000000     2.041000000
C    -0.130000000    -0.503000000     0.016000000
C     0.632000000     0.764000000     0.288000000
H     1.254000000     0.655000000     1.179000000
H     1.284000000     0.809000000    -0.587000000
H    -0.008000000     1.635000000     0.443000000
C    -0.712000000    -0.702000000    -1.261000000
H    -0.640000000     0.115000000    -1.974000000
C    -1.318000000    -1.930000000    -1.572000000
H    -1.658000000    -2.107000000    -2.589000000
C    -1.476000000    -2.946000000    -0.575000000
C    -2.365000000    -4.131000000    -0.850000000
O    -3.140000000    -4.078000000    -1.835000000
O    -2.496000000    -5.041000000    -0.099000000
