17
-92.91710
C    -0.920000000    -2.320000000     0.469000000
H    -0.901000000    -3.058000000     1.267000000
C    -0.149000000    -1.159000000     0.701000000
H     0.360000000    -1.079000000     1.658000000
C    -0.055000000    -0.165000000    -0.296000000
C     0.785000000     1.064000000    -0.208000000
H     1.788000000     0.798000000     0.134000000
H     0.994000000     1.495000000    -1.189000000
H     0.357000000     1.791000000     0.486000000
C    -0.715000000    -0.372000000    -1.496000000
H    -0.682000000     0.303000000    -2.347000000
C    -1.510000000    -1.440000000    -1.675000000
H    -2.135000000    -1.474000000    -2.564000000
C    -1.752000000    -2.431000000    -0.633000000
C    -2.667000000    -3.597000000    -0.635000000
O    -3.411000000    -3.746000000    -1.601000000
O    -2.792000000    -4.379000000     0.313000000
