17
-85.27508
C    -1.070000000    -2.942000000     0.648000000
H    -1.195000000    -3.637000000     1.474000000
C    -0.262000000    -1.826000000     0.806000000
H     0.230000000    -1.548000000     1.734000000
C    -0.233000000    -0.882000000    -0.219000000
C     0.507000000     0.490000000    -0.097000000
H    -0.101000000     1.255000000     0.391000000
H     1.359000000     0.485000000     0.587000000
H     0.786000000     0.826000000    -1.098000000
C    -1.037000000    -1.055000000    -1.328000000
H    -0.870000000    -0.353000000    -2.141000000
C    -1.940000000    -2.103000000    -1.420000000
H    -2.434000000    -2.225000000    -2.381000000
C    -1.915000000    -3.094000000    -0.448000000
C    -2.922000000    -4.236000000    -0.547000000
O    -3.583000000    -4.412000000    -1.517000000
O    -3.277000000    -4.889000000     0.421000000
