17
-87.53179
C    -1.068000000    -2.145000000     1.411000000
H    -1.102000000    -2.725000000     2.330000000
C    -0.368000000    -0.908000000     1.321000000
H     0.199000000    -0.662000000     2.215000000
C    -0.093000000    -0.267000000     0.151000000
C     0.826000000     0.824000000     0.167000000
H     0.252000000     1.748000000     0.260000000
H     1.553000000     0.678000000     0.969000000
H     1.471000000     0.964000000    -0.702000000
C    -0.780000000    -0.703000000    -0.995000000
H    -0.644000000    -0.092000000    -1.884000000
C    -1.570000000    -1.832000000    -0.958000000
H    -1.965000000    -2.139000000    -1.924000000
C    -1.691000000    -2.570000000     0.233000000
C    -2.357000000    -3.968000000     0.247000000
O    -2.863000000    -4.437000000    -0.730000000
O    -2.321000000    -4.665000000     1.228000000
