17
-98.22359
C    -0.975000000    -2.114000000     0.902000000
H    -0.912000000    -2.909000000     1.640000000
C    -0.051000000    -1.093000000     0.789000000
H     0.807000000    -0.975000000     1.445000000
C    -0.145000000    -0.153000000    -0.252000000
C     0.902000000     0.870000000    -0.348000000
H     1.894000000     0.421000000    -0.421000000
H     0.781000000     1.410000000    -1.289000000
H     0.912000000     1.553000000     0.504000000
C    -1.122000000    -0.321000000    -1.214000000
H    -1.205000000     0.399000000    -2.024000000
C    -2.074000000    -1.295000000    -1.050000000
H    -2.967000000    -1.279000000    -1.670000000
C    -2.030000000    -2.254000000    -0.032000000
C    -3.231000000    -3.160000000     0.233000000
O    -4.214000000    -2.930000000    -0.438000000
O    -3.130000000    -3.983000000     1.079000000
