17
-98.47559
C    -1.174000000    -2.789000000     0.817000000
H    -0.900000000    -3.460000000     1.626000000
C    -0.357000000    -1.656000000     0.801000000
H     0.519000000    -1.534000000     1.433000000
C    -0.513000000    -0.699000000    -0.222000000
C     0.567000000     0.325000000    -0.336000000
H     1.557000000    -0.130000000    -0.406000000
H     0.404000000     1.078000000    -1.110000000
H     0.639000000     0.894000000     0.593000000
C    -1.560000000    -0.804000000    -1.110000000
H    -1.651000000    -0.073000000    -1.909000000
C    -2.427000000    -1.882000000    -0.982000000
H    -3.213000000    -2.036000000    -1.716000000
C    -2.224000000    -2.904000000    -0.080000000
C    -3.193000000    -4.074000000     0.006000000
O    -4.096000000    -4.193000000    -0.760000000
O    -2.963000000    -4.893000000     0.903000000
