17
-91.00409
C    -1.531000000    -1.556000000     0.817000000
H    -1.853000000    -2.076000000     1.715000000
C    -0.389000000    -0.807000000     0.826000000
H     0.239000000    -0.737000000     1.711000000
C    -0.009000000    -0.208000000    -0.369000000
C     1.058000000     0.838000000    -0.319000000
H     0.692000000     1.848000000    -0.119000000
H     1.778000000     0.620000000     0.472000000
H     1.573000000     0.870000000    -1.282000000
C    -0.841000000    -0.165000000    -1.529000000
H    -0.599000000     0.433000000    -2.405000000
C    -2.066000000    -0.824000000    -1.468000000
H    -2.722000000    -0.744000000    -2.331000000
C    -2.415000000    -1.507000000    -0.252000000
C    -3.748000000    -2.260000000    -0.168000000
O    -4.461000000    -2.424000000    -1.140000000
O    -4.155000000    -2.823000000     0.843000000
