17
-98.26854
C    -1.143000000    -1.247000000     1.373000000
H    -1.340000000    -1.691000000     2.345000000
C     0.043000000    -0.577000000     1.148000000
H     0.806000000    -0.565000000     1.922000000
C     0.253000000     0.014000000    -0.038000000
C     1.484000000     0.836000000    -0.322000000
H     2.015000000     1.034000000     0.611000000
H     2.217000000     0.393000000    -1.000000000
H     1.224000000     1.803000000    -0.758000000
C    -0.685000000    -0.035000000    -1.091000000
H    -0.589000000     0.424000000    -2.071000000
C    -1.914000000    -0.744000000    -0.869000000
H    -2.678000000    -0.726000000    -1.642000000
C    -2.167000000    -1.278000000     0.406000000
C    -3.438000000    -2.006000000     0.629000000
O    -4.409000000    -1.824000000    -0.131000000
O    -3.611000000    -2.721000000     1.614000000
