17
-80.95080
C    -1.829000000    -0.531000000     1.648000000
H    -2.022000000    -0.620000000     2.714000000
C    -0.583000000    -0.120000000     1.235000000
H     0.281000000     0.041000000     1.875000000
C    -0.274000000     0.208000000    -0.023000000
C     1.101000000     0.593000000    -0.338000000
H     1.765000000    -0.250000000    -0.544000000
H     1.046000000     1.153000000    -1.274000000
H     1.397000000     1.433000000     0.294000000
C    -1.183000000    -0.146000000    -1.054000000
H    -1.018000000     0.034000000    -2.113000000
C    -2.480000000    -0.633000000    -0.694000000
H    -3.278000000    -0.835000000    -1.403000000
C    -2.775000000    -0.804000000     0.677000000
C    -4.127000000    -1.157000000     0.972000000
O    -5.027000000    -1.140000000     0.167000000
O    -4.456000000    -1.415000000     2.147000000
