17
-93.42405
C    -1.399000000    -1.415000000     1.863000000
H    -1.577000000    -1.726000000     2.890000000
C    -0.300000000    -0.643000000     1.542000000
H     0.400000000    -0.410000000     2.341000000
C    -0.128000000    -0.267000000     0.170000000
C     1.070000000     0.510000000    -0.136000000
H     1.804000000     0.602000000     0.667000000
H     1.567000000     0.006000000    -0.968000000
H     0.855000000     1.513000000    -0.510000000
C    -0.976000000    -0.717000000    -0.832000000
H    -0.847000000    -0.403000000    -1.865000000
C    -2.050000000    -1.542000000    -0.460000000
H    -2.678000000    -1.876000000    -1.282000000
C    -2.231000000    -1.906000000     0.858000000
C    -3.381000000    -2.777000000     1.261000000
O    -4.003000000    -3.425000000     0.415000000
O    -3.959000000    -2.574000000     2.304000000
