17
-88.08402
C    -1.116000000    -0.768000000     2.464000000
H    -1.044000000    -1.167000000     3.472000000
C    -0.032000000    -0.210000000     1.804000000
H     0.899000000    -0.034000000     2.337000000
C    -0.205000000     0.154000000     0.452000000
C     1.073000000     0.788000000    -0.199000000
H     1.751000000     1.240000000     0.527000000
H     1.762000000     0.261000000    -0.862000000
H     0.718000000     1.649000000    -0.768000000
C    -1.294000000    -0.133000000    -0.261000000
H    -1.401000000     0.199000000    -1.291000000
C    -2.345000000    -0.797000000     0.379000000
H    -3.284000000    -1.078000000    -0.091000000
C    -2.254000000    -1.137000000     1.753000000
C    -3.379000000    -1.976000000     2.324000000
O    -4.380000000    -2.164000000     1.678000000
O    -3.258000000    -2.492000000     3.384000000
