17
-102.11873
C    -1.584000000    -0.592000000     1.866000000
H    -1.698000000    -0.483000000     2.941000000
C    -0.539000000     0.014000000     1.180000000
H     0.140000000     0.608000000     1.787000000
C    -0.319000000    -0.259000000    -0.132000000
C     0.836000000     0.346000000    -0.899000000
H     0.679000000     0.051000000    -1.938000000
H     0.839000000     1.435000000    -0.826000000
H     1.791000000    -0.079000000    -0.584000000
C    -1.170000000    -1.112000000    -0.813000000
H    -1.073000000    -1.375000000    -1.863000000
C    -2.278000000    -1.706000000    -0.127000000
H    -2.985000000    -2.280000000    -0.720000000
C    -2.466000000    -1.505000000     1.246000000
C    -3.567000000    -2.142000000     2.078000000
O    -4.177000000    -3.024000000     1.466000000
O    -3.895000000    -1.692000000     3.197000000
