17
-86.28677
C    -1.678000000    -0.591000000     2.049000000
H    -1.783000000    -0.687000000     3.127000000
C    -0.541000000     0.059000000     1.478000000
H     0.292000000     0.373000000     2.102000000
C    -0.437000000     0.005000000     0.103000000
C     0.832000000     0.628000000    -0.553000000
H     1.527000000    -0.194000000    -0.737000000
H     0.574000000     1.198000000    -1.448000000
H     1.315000000     1.312000000     0.148000000
C    -1.488000000    -0.357000000    -0.684000000
H    -1.264000000    -0.351000000    -1.748000000
C    -2.681000000    -0.845000000    -0.138000000
H    -3.505000000    -1.136000000    -0.784000000
C    -2.717000000    -1.026000000     1.219000000
C    -3.944000000    -1.662000000     1.824000000
O    -4.587000000    -2.489000000     1.224000000
O    -4.137000000    -1.596000000     2.991000000
