17
-94.79710
C    -1.285000000    -0.108000000     2.195000000
H    -1.414000000     0.007000000     3.268000000
C    -0.148000000     0.325000000     1.548000000
H     0.542000000     0.821000000     2.226000000
C    -0.028000000     0.266000000     0.167000000
C     1.192000000     0.766000000    -0.615000000
H     1.767000000    -0.086000000    -0.986000000
H     0.914000000     1.393000000    -1.464000000
H     1.890000000     1.419000000    -0.086000000
C    -1.066000000    -0.369000000    -0.514000000
H    -0.916000000    -0.371000000    -1.591000000
C    -2.251000000    -0.726000000     0.045000000
H    -3.122000000    -1.133000000    -0.462000000
C    -2.369000000    -0.660000000     1.440000000
C    -3.618000000    -1.159000000     2.141000000
O    -4.407000000    -1.811000000     1.478000000
O    -3.687000000    -1.098000000     3.331000000
