17
-94.67434
C     1.188000000    -2.359000000     0.585000000
H     1.267000000    -3.379000000     0.216000000
C     0.408000000    -1.407000000    -0.136000000
H    -0.303000000    -1.732000000    -0.890000000
C     0.343000000    -0.122000000     0.249000000
C    -0.545000000     0.887000000    -0.419000000
H    -0.874000000     0.619000000    -1.426000000
H    -1.440000000     1.093000000     0.172000000
H    -0.035000000     1.836000000    -0.599000000
C     1.147000000     0.278000000     1.311000000
H     1.035000000     1.322000000     1.592000000
C     2.000000000    -0.600000000     2.020000000
H     2.529000000    -0.230000000     2.894000000
C     1.892000000    -1.951000000     1.716000000
C     2.690000000    -3.024000000     2.498000000
O     3.140000000    -2.853000000     3.627000000
O     2.881000000    -4.071000000     1.949000000
