17
-99.23461
C    -2.660000000     0.423000000     1.783000000
H    -2.998000000     0.857000000     2.720000000
C    -1.305000000     0.387000000     1.406000000
H    -0.580000000     0.946000000     1.992000000
C    -0.909000000    -0.155000000     0.188000000
C     0.538000000    -0.045000000    -0.313000000
H     0.927000000     0.950000000    -0.087000000
H     1.145000000    -0.773000000     0.230000000
H     0.625000000    -0.156000000    -1.396000000
C    -1.853000000    -0.736000000    -0.619000000
H    -1.566000000    -1.095000000    -1.604000000
C    -3.221000000    -0.802000000    -0.161000000
H    -3.875000000    -1.408000000    -0.783000000
C    -3.634000000    -0.147000000     0.979000000
C    -5.052000000    -0.398000000     1.457000000
O    -5.910000000    -0.933000000     0.739000000
O    -5.331000000     0.125000000     2.522000000
