17
-98.89187
C    -3.729000000     0.750000000     1.546000000
H    -4.449000000     1.493000000     1.879000000
C    -2.387000000     1.143000000     1.530000000
H    -2.174000000     2.121000000     1.954000000
C    -1.471000000     0.158000000     1.039000000
C    -0.031000000     0.527000000     0.970000000
H     0.165000000     1.092000000     1.884000000
H     0.497000000    -0.424000000     0.876000000
H     0.291000000     1.056000000     0.071000000
C    -1.893000000    -1.006000000     0.481000000
H    -1.128000000    -1.680000000     0.105000000
C    -3.255000000    -1.377000000     0.548000000
H    -3.586000000    -2.332000000     0.149000000
C    -4.199000000    -0.487000000     1.101000000
C    -5.677000000    -0.810000000     1.068000000
O    -6.042000000    -1.780000000     0.434000000
O    -6.472000000    -0.110000000     1.768000000
