17
-94.98827
C    -2.857000000    -1.493000000    -0.259000000
H    -3.887000000    -1.300000000    -0.549000000
C    -1.842000000    -0.639000000    -0.723000000
H    -2.080000000     0.154000000    -1.426000000
C    -0.531000000    -0.701000000    -0.170000000
C     0.677000000     0.000000000    -0.752000000
H     0.481000000     0.736000000    -1.535000000
H     1.210000000     0.443000000     0.092000000
H     1.332000000    -0.682000000    -1.298000000
C    -0.238000000    -1.612000000     0.802000000
H     0.780000000    -1.714000000     1.169000000
C    -1.159000000    -2.548000000     1.139000000
H    -0.863000000    -3.320000000     1.844000000
C    -2.455000000    -2.530000000     0.552000000
C    -3.368000000    -3.653000000     0.962000000
O    -3.063000000    -4.587000000     1.719000000
O    -4.505000000    -3.586000000     0.490000000
