17
-91.98957
C    -2.734000000    -1.377000000    -0.284000000
H    -3.711000000    -1.377000000    -0.761000000
C    -1.755000000    -0.449000000    -0.647000000
H    -2.108000000     0.411000000    -1.210000000
C    -0.457000000    -0.484000000    -0.163000000
C     0.512000000     0.620000000    -0.471000000
H     0.380000000     1.060000000    -1.462000000
H     0.329000000     1.431000000     0.236000000
H     1.534000000     0.242000000    -0.548000000
C    -0.153000000    -1.569000000     0.668000000
H     0.790000000    -1.668000000     1.199000000
C    -1.008000000    -2.621000000     0.861000000
H    -0.655000000    -3.558000000     1.284000000
C    -2.363000000    -2.553000000     0.400000000
C    -3.282000000    -3.728000000     0.546000000
O    -2.926000000    -4.698000000     1.133000000
O    -4.466000000    -3.617000000     0.248000000
