17
-96.22620
C    -2.295000000    -2.310000000    -0.149000000
H    -3.171000000    -2.546000000    -0.748000000
C    -1.477000000    -1.291000000    -0.576000000
H    -1.719000000    -0.613000000    -1.391000000
C    -0.305000000    -1.083000000     0.099000000
C     0.656000000     0.010000000    -0.382000000
H     0.080000000     0.778000000    -0.902000000
H     1.228000000     0.429000000     0.448000000
H     1.410000000    -0.242000000    -1.131000000
C     0.077000000    -1.809000000     1.240000000
H     1.037000000    -1.742000000     1.746000000
C    -0.736000000    -2.857000000     1.597000000
H    -0.389000000    -3.450000000     2.439000000
C    -1.969000000    -3.089000000     1.026000000
C    -2.795000000    -4.268000000     1.380000000
O    -2.536000000    -4.895000000     2.402000000
O    -3.760000000    -4.612000000     0.677000000
