17
-97.81691
C    -2.565000000    -0.007000000     1.027000000
H    -3.340000000     0.440000000     1.644000000
C    -1.500000000     0.709000000     0.500000000
H    -1.442000000     1.781000000     0.672000000
C    -0.477000000     0.084000000    -0.226000000
C     0.784000000     0.837000000    -0.628000000
H     1.109000000     0.501000000    -1.614000000
H     0.707000000     1.926000000    -0.601000000
H     1.606000000     0.513000000     0.014000000
C    -0.568000000    -1.333000000    -0.327000000
H     0.151000000    -1.850000000    -0.957000000
C    -1.627000000    -2.038000000     0.186000000
H    -1.776000000    -3.094000000    -0.025000000
C    -2.601000000    -1.375000000     0.899000000
C    -3.736000000    -2.251000000     1.523000000
O    -3.638000000    -3.434000000     1.589000000
O    -4.735000000    -1.690000000     2.012000000
