17
-100.92268
C    -2.109000000    -0.495000000     0.897000000
H    -2.925000000     0.032000000     1.386000000
C    -1.048000000     0.280000000     0.496000000
H    -1.002000000     1.348000000     0.692000000
C     0.031000000    -0.374000000    -0.118000000
C     1.160000000     0.397000000    -0.641000000
H     2.005000000    -0.172000000    -1.034000000
H     0.762000000     1.017000000    -1.447000000
H     1.546000000     1.074000000     0.124000000
C    -0.042000000    -1.779000000    -0.335000000
H     0.804000000    -2.244000000    -0.833000000
C    -1.178000000    -2.510000000    -0.072000000
H    -1.215000000    -3.581000000    -0.251000000
C    -2.232000000    -1.860000000     0.553000000
C    -3.457000000    -2.621000000     0.905000000
O    -3.520000000    -3.803000000     0.587000000
O    -4.259000000    -2.069000000     1.641000000
