17
-94.47992
C    -2.206000000    -0.320000000     1.299000000
H    -3.084000000     0.179000000     1.701000000
C    -1.288000000     0.476000000     0.641000000
H    -1.408000000     1.556000000     0.664000000
C    -0.201000000    -0.055000000    -0.040000000
C     0.935000000     0.821000000    -0.605000000
H     1.934000000     0.682000000    -0.185000000
H     0.894000000     0.592000000    -1.672000000
H     0.676000000     1.878000000    -0.524000000
C    -0.142000000    -1.448000000    -0.153000000
H     0.709000000    -1.944000000    -0.610000000
C    -1.148000000    -2.234000000     0.458000000
H    -1.099000000    -3.318000000     0.387000000
C    -2.136000000    -1.678000000     1.296000000
C    -3.130000000    -2.480000000     2.120000000
O    -3.197000000    -3.663000000     1.999000000
O    -3.819000000    -1.921000000     2.969000000
