17
-95.50518
C     0.533000000    -2.399000000     0.622000000
H     0.298000000    -3.421000000     0.337000000
C    -0.022000000    -1.430000000    -0.186000000
H    -0.678000000    -1.632000000    -1.030000000
C     0.161000000    -0.067000000     0.146000000
C    -0.507000000     1.033000000    -0.664000000
H    -0.383000000     0.905000000    -1.741000000
H    -1.588000000     1.135000000    -0.546000000
H    -0.114000000     2.000000000    -0.341000000
C     1.032000000     0.266000000     1.211000000
H     1.171000000     1.328000000     1.399000000
C     1.671000000    -0.675000000     1.980000000
H     2.369000000    -0.337000000     2.742000000
C     1.437000000    -2.039000000     1.645000000
C     2.244000000    -3.122000000     2.282000000
O     2.863000000    -2.854000000     3.304000000
O     2.356000000    -4.269000000     1.867000000
