17
-94.54563
C    -2.961000000    -0.768000000     0.525000000
H    -3.918000000    -0.332000000     0.804000000
C    -1.940000000     0.130000000     0.350000000
H    -2.092000000     1.206000000     0.354000000
C    -0.741000000    -0.340000000    -0.130000000
C     0.449000000     0.598000000    -0.251000000
H     0.154000000     1.533000000     0.230000000
H     1.237000000     0.201000000     0.393000000
H     0.740000000     0.851000000    -1.273000000
C    -0.550000000    -1.692000000    -0.355000000
H     0.399000000    -2.090000000    -0.706000000
C    -1.599000000    -2.586000000    -0.013000000
H    -1.501000000    -3.654000000    -0.195000000
C    -2.854000000    -2.097000000     0.389000000
C    -4.009000000    -3.101000000     0.673000000
O    -3.816000000    -4.287000000     0.671000000
O    -5.072000000    -2.602000000     0.903000000
