17
-84.69208
C    -2.374000000    -0.961000000     0.562000000
H    -3.258000000    -0.586000000     1.072000000
C    -1.240000000    -0.093000000     0.496000000
H    -1.291000000     0.868000000     1.001000000
C    -0.116000000    -0.473000000    -0.192000000
C     1.044000000     0.452000000    -0.296000000
H     1.492000000     0.768000000     0.649000000
H     1.776000000    -0.055000000    -0.928000000
H     0.578000000     1.313000000    -0.779000000
C    -0.033000000    -1.807000000    -0.687000000
H     0.923000000    -2.154000000    -1.068000000
C    -1.158000000    -2.632000000    -0.701000000
H    -1.041000000    -3.623000000    -1.132000000
C    -2.382000000    -2.211000000    -0.121000000
C    -3.692000000    -3.060000000    -0.105000000
O    -3.691000000    -4.224000000    -0.081000000
O    -4.689000000    -2.469000000     0.132000000
