17
-93.60932
C     1.309000000    -2.485000000    -0.349000000
H     1.369000000    -3.421000000    -0.898000000
C     0.490000000    -1.475000000    -0.855000000
H    -0.082000000    -1.719000000    -1.747000000
C     0.359000000    -0.310000000    -0.202000000
C    -0.671000000     0.651000000    -0.688000000
H    -1.502000000     0.574000000     0.017000000
H    -0.317000000     1.684000000    -0.677000000
H    -1.033000000     0.527000000    -1.710000000
C     1.063000000    -0.212000000     1.010000000
H     0.944000000     0.767000000     1.467000000
C     1.864000000    -1.187000000     1.581000000
H     2.446000000    -1.038000000     2.488000000
C     1.952000000    -2.352000000     0.892000000
C     2.826000000    -3.436000000     1.417000000
O     3.610000000    -3.276000000     2.356000000
O     2.831000000    -4.506000000     0.828000000
