17
-90.53742
C    -2.644000000    -0.101000000     0.299000000
H    -3.608000000     0.397000000     0.227000000
C    -1.475000000     0.572000000    -0.011000000
H    -1.444000000     1.643000000    -0.193000000
C    -0.302000000    -0.103000000    -0.229000000
C     0.942000000     0.644000000    -0.479000000
H     1.264000000     0.403000000    -1.494000000
H     0.808000000     1.719000000    -0.338000000
H     1.693000000     0.332000000     0.250000000
C    -0.241000000    -1.457000000    -0.157000000
H     0.668000000    -2.030000000    -0.322000000
C    -1.391000000    -2.169000000     0.115000000
H    -1.295000000    -3.251000000     0.154000000
C    -2.598000000    -1.500000000     0.371000000
C    -3.873000000    -2.252000000     0.653000000
O    -4.082000000    -3.338000000     0.207000000
O    -4.714000000    -1.816000000     1.421000000
