17
-87.01167
C    -3.005000000     0.320000000     0.414000000
H    -3.789000000     1.051000000     0.591000000
C    -1.723000000     0.697000000     0.153000000
H    -1.407000000     1.736000000     0.097000000
C    -0.713000000    -0.222000000    -0.304000000
C     0.739000000     0.270000000    -0.469000000
H     0.923000000     1.108000000    -1.145000000
H     1.071000000     0.546000000     0.534000000
H     1.440000000    -0.553000000    -0.623000000
C    -1.080000000    -1.522000000    -0.381000000
H    -0.331000000    -2.300000000    -0.499000000
C    -2.348000000    -1.983000000    -0.088000000
H    -2.613000000    -3.036000000    -0.131000000
C    -3.313000000    -1.031000000     0.339000000
C    -4.678000000    -1.455000000     0.642000000
O    -5.180000000    -2.457000000     0.222000000
O    -5.283000000    -0.746000000     1.404000000
