17
-92.21814
C    -2.401000000    -0.013000000     0.455000000
H    -3.338000000     0.536000000     0.423000000
C    -1.197000000     0.634000000     0.281000000
H    -1.100000000     1.658000000    -0.070000000
C     0.005000000    -0.020000000     0.361000000
C     1.233000000     0.711000000     0.002000000
H     1.536000000     0.511000000    -1.028000000
H     1.128000000     1.793000000     0.106000000
H     2.123000000     0.329000000     0.507000000
C    -0.005000000    -1.365000000     0.558000000
H     0.965000000    -1.853000000     0.502000000
C    -1.172000000    -2.127000000     0.691000000
H    -1.174000000    -3.214000000     0.670000000
C    -2.387000000    -1.391000000     0.637000000
C    -3.789000000    -1.984000000     0.868000000
O    -3.954000000    -3.163000000     1.114000000
O    -4.811000000    -1.304000000     0.737000000
