17
-96.55508
C    -2.511000000    -0.310000000    -0.385000000
H    -3.434000000     0.248000000    -0.516000000
C    -1.256000000     0.309000000    -0.317000000
H    -1.272000000     1.396000000    -0.328000000
C    -0.122000000    -0.391000000    -0.160000000
C     1.146000000     0.426000000    -0.115000000
H     1.142000000     1.025000000    -1.029000000
H     1.180000000     1.057000000     0.776000000
H     2.004000000    -0.249000000    -0.109000000
C    -0.092000000    -1.747000000    -0.170000000
H     0.831000000    -2.313000000    -0.074000000
C    -1.337000000    -2.448000000    -0.218000000
H    -1.339000000    -3.535000000    -0.209000000
C    -2.573000000    -1.751000000    -0.296000000
C    -3.912000000    -2.340000000    -0.387000000
O    -3.935000000    -3.558000000    -0.129000000
O    -4.945000000    -1.626000000    -0.462000000
