17
-87.51166
C    -2.651000000     0.400000000    -0.375000000
H    -3.522000000     1.008000000    -0.602000000
C    -1.372000000     0.917000000    -0.315000000
H    -1.142000000     1.959000000    -0.520000000
C    -0.265000000     0.111000000    -0.217000000
C     1.112000000     0.696000000    -0.363000000
H     1.349000000     0.942000000    -1.400000000
H     1.235000000     1.682000000     0.089000000
H     1.863000000     0.134000000     0.197000000
C    -0.378000000    -1.261000000    -0.076000000
H     0.466000000    -1.946000000    -0.098000000
C    -1.641000000    -1.797000000     0.091000000
H    -1.731000000    -2.880000000     0.134000000
C    -2.774000000    -0.978000000    -0.065000000
C    -4.108000000    -1.727000000    -0.138000000
O    -4.224000000    -2.836000000     0.305000000
O    -4.910000000    -1.301000000    -0.886000000
