17
-91.44807
C    -3.053000000    -0.191000000    -0.662000000
H    -3.934000000     0.185000000    -1.176000000
C    -1.919000000     0.550000000    -0.458000000
H    -1.826000000     1.613000000    -0.664000000
C    -0.725000000    -0.049000000    -0.201000000
C     0.614000000     0.735000000    -0.188000000
H     1.140000000     0.649000000    -1.141000000
H     0.422000000     1.798000000    -0.028000000
H     1.233000000     0.360000000     0.630000000
C    -0.764000000    -1.425000000    -0.060000000
H     0.180000000    -1.954000000     0.047000000
C    -1.886000000    -2.221000000    -0.130000000
H    -1.806000000    -3.299000000    -0.014000000
C    -3.106000000    -1.552000000    -0.482000000
C    -4.379000000    -2.309000000    -0.679000000
O    -4.386000000    -3.520000000    -0.576000000
O    -5.425000000    -1.760000000    -0.997000000
