17
-92.35662
C    -3.383000000    -0.562000000    -0.895000000
H    -4.257000000    -0.128000000    -1.373000000
C    -2.136000000     0.009000000    -0.720000000
H    -2.126000000     1.067000000    -0.969000000
C    -1.028000000    -0.572000000    -0.097000000
C     0.191000000     0.131000000     0.315000000
H     0.361000000     1.062000000    -0.230000000
H     0.212000000     0.426000000     1.366000000
H     0.996000000    -0.552000000     0.036000000
C    -1.243000000    -1.956000000     0.324000000
H    -0.425000000    -2.473000000     0.819000000
C    -2.413000000    -2.523000000    -0.016000000
H    -2.539000000    -3.530000000     0.374000000
C    -3.536000000    -1.913000000    -0.628000000
C    -4.811000000    -2.721000000    -0.900000000
O    -4.924000000    -3.786000000    -0.292000000
O    -5.717000000    -2.198000000    -1.492000000
