17
-96.87009
C    -2.607000000    -1.321000000    -0.931000000
H    -3.567000000    -0.958000000    -1.287000000
C    -1.632000000    -0.349000000    -0.730000000
H    -1.748000000     0.698000000    -0.999000000
C    -0.393000000    -0.704000000    -0.218000000
C     0.672000000     0.299000000    -0.120000000
H     1.340000000     0.189000000    -0.977000000
H     0.215000000     1.285000000    -0.012000000
H     1.174000000     0.221000000     0.846000000
C    -0.221000000    -2.041000000     0.159000000
H     0.730000000    -2.340000000     0.592000000
C    -1.191000000    -3.042000000     0.032000000
H    -0.987000000    -4.065000000     0.337000000
C    -2.423000000    -2.670000000    -0.538000000
C    -3.413000000    -3.706000000    -0.877000000
O    -3.347000000    -4.807000000    -0.313000000
O    -4.473000000    -3.361000000    -1.430000000
