17
-81.44327
C    -1.161000000    -2.255000000    -1.220000000
H    -1.318000000    -2.888000000    -2.089000000
C    -0.648000000    -1.033000000    -1.372000000
H    -0.416000000    -0.663000000    -2.367000000
C    -0.126000000    -0.370000000    -0.265000000
C     0.812000000     0.786000000    -0.489000000
H     1.673000000     0.627000000     0.164000000
H     1.201000000     0.807000000    -1.509000000
H     0.336000000     1.722000000    -0.189000000
C    -0.593000000    -0.768000000     1.000000000
H    -0.306000000    -0.192000000     1.875000000
C    -1.168000000    -1.975000000     1.192000000
H    -1.359000000    -2.340000000     2.197000000
C    -1.496000000    -2.779000000     0.056000000
C    -2.359000000    -4.039000000     0.093000000
O    -3.068000000    -4.307000000     1.059000000
O    -2.757000000    -4.393000000    -0.988000000
