17
-91.29214
C    -1.013000000    -2.254000000    -0.289000000
H    -1.312000000    -3.071000000    -0.940000000
C    -0.318000000    -1.162000000    -0.693000000
H    -0.068000000    -0.925000000    -1.723000000
C     0.215000000    -0.294000000     0.200000000
C     1.060000000     0.801000000    -0.309000000
H     0.473000000     1.672000000    -0.607000000
H     1.709000000     1.025000000     0.541000000
H     1.838000000     0.527000000    -1.024000000
C    -0.029000000    -0.410000000     1.532000000
H     0.391000000     0.313000000     2.226000000
C    -0.765000000    -1.483000000     2.003000000
H    -0.863000000    -1.616000000     3.077000000
C    -1.217000000    -2.476000000     1.086000000
C    -1.926000000    -3.709000000     1.465000000
O    -2.474000000    -3.658000000     2.537000000
O    -1.925000000    -4.760000000     0.765000000
