17
-95.49269
C    -0.200000000    -2.485000000    -0.355000000
H    -0.319000000    -3.349000000    -1.003000000
C     0.068000000    -1.140000000    -0.836000000
H     0.179000000    -1.086000000    -1.916000000
C     0.227000000    -0.093000000     0.073000000
C     0.788000000     1.214000000    -0.474000000
H     1.571000000     1.600000000     0.181000000
H     1.139000000     1.128000000    -1.504000000
H    -0.109000000     1.837000000    -0.439000000
C    -0.043000000    -0.270000000     1.420000000
H     0.126000000     0.562000000     2.098000000
C    -0.459000000    -1.545000000     1.891000000
H    -0.514000000    -1.752000000     2.957000000
C    -0.529000000    -2.617000000     0.975000000
C    -0.875000000    -4.039000000     1.452000000
O    -1.417000000    -4.102000000     2.525000000
O    -0.684000000    -5.074000000     0.789000000
