17
-97.50093
C     0.746000000    -2.130000000    -0.513000000
H     0.638000000    -3.053000000    -1.077000000
C    -0.205000000    -1.109000000    -0.577000000
H    -1.057000000    -1.165000000    -1.250000000
C     0.040000000     0.081000000     0.123000000
C    -0.904000000     1.228000000    -0.031000000
H    -1.385000000     1.272000000    -1.010000000
H    -1.753000000     1.016000000     0.623000000
H    -0.410000000     2.149000000     0.286000000
C     1.021000000     0.137000000     1.087000000
H     1.085000000     0.990000000     1.757000000
C     2.053000000    -0.883000000     1.039000000
H     2.898000000    -0.818000000     1.720000000
C     1.907000000    -2.003000000     0.167000000
C     3.001000000    -3.087000000     0.129000000
O     3.805000000    -3.133000000     1.105000000
O     2.909000000    -3.962000000    -0.700000000
