17
-81.93010
C    -0.890000000    -2.564000000    -0.589000000
H    -1.114000000    -3.213000000    -1.432000000
C    -0.189000000    -1.371000000    -0.755000000
H     0.063000000    -1.065000000    -1.767000000
C     0.160000000    -0.522000000     0.296000000
C     0.914000000     0.795000000    -0.025000000
H     0.201000000     1.567000000    -0.323000000
H     1.516000000     1.029000000     0.855000000
H     1.593000000     0.529000000    -0.838000000
C    -0.356000000    -0.847000000     1.519000000
H    -0.087000000    -0.072000000     2.232000000
C    -1.138000000    -2.023000000     1.714000000
H    -1.623000000    -2.350000000     2.631000000
C    -1.343000000    -2.933000000     0.652000000
C    -1.959000000    -4.370000000     0.877000000
O    -2.581000000    -4.642000000     1.912000000
O    -2.006000000    -5.160000000     0.033000000
