17
-95.67859
C    -1.964000000    -0.994000000    -1.156000000
H    -2.396000000    -1.179000000    -2.136000000
C    -0.728000000    -0.374000000    -1.044000000
H    -0.158000000    -0.089000000    -1.925000000
C    -0.235000000     0.019000000     0.193000000
C     1.110000000     0.657000000     0.169000000
H     1.819000000    -0.140000000     0.397000000
H     1.317000000     1.136000000    -0.790000000
H     1.191000000     1.395000000     0.971000000
C    -0.889000000    -0.287000000     1.375000000
H    -0.481000000    -0.125000000     2.370000000
C    -2.053000000    -1.019000000     1.280000000
H    -2.599000000    -1.344000000     2.162000000
C    -2.589000000    -1.398000000     0.023000000
C    -3.745000000    -2.375000000    -0.097000000
O    -4.358000000    -2.781000000     0.887000000
O    -4.227000000    -2.578000000    -1.181000000
