17
-98.86968
C    -1.666000000    -0.972000000    -1.721000000
H    -1.880000000    -1.281000000    -2.741000000
C    -0.616000000    -0.111000000    -1.362000000
H    -0.118000000     0.358000000    -2.208000000
C    -0.248000000     0.068000000    -0.032000000
C     0.971000000     0.968000000     0.367000000
H     1.136000000     1.796000000    -0.326000000
H     0.845000000     1.343000000     1.385000000
H     1.827000000     0.291000000     0.339000000
C    -0.903000000    -0.640000000     0.986000000
H    -0.608000000    -0.546000000     2.028000000
C    -1.923000000    -1.471000000     0.608000000
H    -2.347000000    -2.094000000     1.392000000
C    -2.329000000    -1.711000000    -0.714000000
C    -3.293000000    -2.839000000    -1.000000000
O    -3.809000000    -3.397000000    -0.050000000
O    -3.613000000    -3.153000000    -2.148000000
