17
-93.84013
C    -1.118000000    -1.159000000    -2.013000000
H    -1.007000000    -1.341000000    -3.079000000
C    -0.158000000    -0.445000000    -1.309000000
H     0.577000000     0.177000000    -1.814000000
C    -0.186000000    -0.230000000     0.021000000
C     0.747000000     0.758000000     0.615000000
H     0.257000000     1.291000000     1.433000000
H     1.701000000     0.287000000     0.863000000
H     0.996000000     1.558000000    -0.084000000
C    -1.056000000    -0.960000000     0.792000000
H    -1.113000000    -0.960000000     1.878000000
C    -1.958000000    -1.837000000     0.125000000
H    -2.605000000    -2.500000000     0.693000000
C    -2.038000000    -1.935000000    -1.296000000
C    -3.039000000    -2.874000000    -2.043000000
O    -3.875000000    -3.489000000    -1.393000000
O    -2.927000000    -3.130000000    -3.245000000
