17
-84.81164
C    -1.744000000    -0.755000000    -1.600000000
H    -2.120000000    -0.764000000    -2.620000000
C    -0.637000000     0.008000000    -1.284000000
H    -0.123000000     0.571000000    -2.058000000
C    -0.177000000     0.127000000     0.034000000
C     0.806000000     1.105000000     0.316000000
H     1.387000000     0.879000000     1.213000000
H     1.507000000     1.144000000    -0.520000000
H     0.496000000     2.137000000     0.490000000
C    -0.782000000    -0.593000000     1.006000000
H    -0.480000000    -0.730000000     2.042000000
C    -1.885000000    -1.367000000     0.736000000
H    -2.420000000    -1.825000000     1.564000000
C    -2.367000000    -1.473000000    -0.560000000
C    -3.482000000    -2.415000000    -0.965000000
O    -4.017000000    -3.151000000    -0.155000000
O    -3.746000000    -2.641000000    -2.105000000
