17
-85.64231
C    -2.358000000    -0.517000000    -1.070000000
H    -2.944000000    -0.658000000    -1.975000000
C    -1.152000000     0.112000000    -1.072000000
H    -0.807000000     0.524000000    -2.017000000
C    -0.347000000     0.201000000     0.082000000
C     0.929000000     0.951000000     0.004000000
H     1.254000000     1.187000000     1.019000000
H     1.724000000     0.460000000    -0.562000000
H     0.758000000     1.869000000    -0.562000000
C    -0.756000000    -0.453000000     1.324000000
H    -0.170000000    -0.373000000     2.236000000
C    -1.876000000    -1.250000000     1.315000000
H    -2.112000000    -1.735000000     2.258000000
C    -2.718000000    -1.136000000     0.152000000
C    -4.167000000    -1.760000000     0.104000000
O    -4.594000000    -2.357000000     1.109000000
O    -4.768000000    -1.871000000    -0.899000000
