17
-98.10045
C    -2.067000000    -1.012000000    -0.677000000
H    -2.708000000    -1.218000000    -1.530000000
C    -0.993000000    -0.199000000    -0.846000000
H    -0.760000000     0.076000000    -1.871000000
C    -0.245000000     0.289000000     0.261000000
C     0.924000000     1.171000000     0.012000000
H     1.816000000     0.702000000    -0.407000000
H     0.624000000     1.980000000    -0.659000000
H     1.174000000     1.654000000     0.959000000
C    -0.620000000    -0.162000000     1.574000000
H    -0.077000000     0.241000000     2.425000000
C    -1.714000000    -0.978000000     1.710000000
H    -2.110000000    -1.166000000     2.705000000
C    -2.461000000    -1.463000000     0.614000000
C    -3.829000000    -2.180000000     0.848000000
O    -4.184000000    -2.526000000     1.956000000
O    -4.578000000    -2.291000000    -0.109000000
