17
-94.81793
C    -1.927000000    -1.155000000    -0.750000000
H    -2.631000000    -1.392000000    -1.544000000
C    -0.918000000    -0.267000000    -1.020000000
H    -0.798000000     0.232000000    -1.978000000
C    -0.046000000     0.154000000    -0.042000000
C     0.984000000     1.197000000    -0.299000000
H     0.667000000     2.205000000    -0.022000000
H     1.867000000     1.053000000     0.328000000
H     1.358000000     1.161000000    -1.324000000
C    -0.150000000    -0.316000000     1.243000000
H     0.546000000     0.032000000     2.002000000
C    -1.211000000    -1.184000000     1.557000000
H    -1.302000000    -1.631000000     2.544000000
C    -2.155000000    -1.580000000     0.550000000
C    -3.377000000    -2.318000000     0.891000000
O    -3.593000000    -2.744000000     2.022000000
O    -4.262000000    -2.669000000     0.007000000
