17
-86.72341
C    -1.896000000    -1.574000000    -0.680000000
H    -2.528000000    -1.986000000    -1.462000000
C    -0.887000000    -0.637000000    -1.015000000
H    -0.755000000    -0.381000000    -2.063000000
C    -0.033000000    -0.069000000    -0.088000000
C     1.139000000     0.830000000    -0.364000000
H     2.023000000     0.208000000    -0.212000000
H     1.050000000     1.177000000    -1.395000000
H     1.265000000     1.711000000     0.268000000
C    -0.241000000    -0.548000000     1.235000000
H     0.446000000    -0.201000000     2.003000000
C    -1.277000000    -1.423000000     1.578000000
H    -1.513000000    -1.589000000     2.626000000
C    -2.134000000    -1.917000000     0.595000000
C    -3.301000000    -2.811000000     0.885000000
O    -3.401000000    -3.058000000     2.035000000
O    -4.127000000    -3.227000000     0.126000000
