17
-96.66867
C    -1.175000000    -1.817000000    -0.805000000
H    -1.421000000    -2.480000000    -1.630000000
C    -0.350000000    -0.714000000    -1.029000000
H    -0.147000000    -0.389000000    -2.046000000
C     0.199000000    -0.014000000     0.090000000
C     1.139000000     1.131000000    -0.136000000
H     0.567000000     2.057000000    -0.043000000
H     2.012000000     1.095000000     0.519000000
H     1.544000000     1.167000000    -1.150000000
C    -0.246000000    -0.366000000     1.355000000
H     0.098000000     0.202000000     2.215000000
C    -1.134000000    -1.449000000     1.604000000
H    -1.346000000    -1.693000000     2.642000000
C    -1.513000000    -2.253000000     0.495000000
C    -2.415000000    -3.393000000     0.819000000
O    -3.040000000    -3.372000000     1.826000000
O    -2.625000000    -4.219000000    -0.078000000
