17
-88.09066
C    -1.328000000    -2.284000000    -0.723000000
H    -2.129000000    -2.726000000    -1.312000000
C    -0.812000000    -1.019000000    -1.059000000
H    -1.222000000    -0.480000000    -1.909000000
C     0.082000000    -0.385000000    -0.307000000
C     0.504000000     1.037000000    -0.641000000
H    -0.345000000     1.666000000    -0.918000000
H     1.028000000     1.515000000     0.190000000
H     1.109000000     1.055000000    -1.549000000
C     0.503000000    -0.909000000     0.934000000
H     1.030000000    -0.295000000     1.659000000
C     0.167000000    -2.260000000     1.197000000
H     0.542000000    -2.708000000     2.114000000
C    -0.815000000    -2.892000000     0.456000000
C    -1.288000000    -4.285000000     0.793000000
O    -0.818000000    -4.814000000     1.761000000
O    -2.321000000    -4.779000000     0.361000000
