17
-92.97618
C    -1.523000000    -1.816000000    -0.959000000
H    -2.239000000    -2.256000000    -1.649000000
C    -0.982000000    -0.593000000    -1.104000000
H    -1.346000000     0.028000000    -1.918000000
C    -0.140000000    -0.021000000    -0.191000000
C     0.586000000     1.280000000    -0.524000000
H     1.595000000     1.092000000    -0.150000000
H     0.630000000     1.527000000    -1.587000000
H     0.121000000     2.049000000     0.096000000
C     0.103000000    -0.638000000     1.014000000
H     0.726000000    -0.185000000     1.782000000
C    -0.489000000    -1.895000000     1.239000000
H    -0.302000000    -2.431000000     2.165000000
C    -1.318000000    -2.497000000     0.282000000
C    -2.140000000    -3.708000000     0.718000000
O    -1.853000000    -4.374000000     1.737000000
O    -2.855000000    -4.259000000    -0.142000000
