17
-90.48868
C    -2.317000000    -1.509000000    -0.649000000
H    -3.183000000    -1.630000000    -1.296000000
C    -1.422000000    -0.480000000    -0.937000000
H    -1.784000000     0.088000000    -1.791000000
C    -0.225000000    -0.325000000    -0.280000000
C     0.722000000     0.779000000    -0.587000000
H     0.264000000     1.442000000    -1.324000000
H     0.891000000     1.436000000     0.269000000
H     1.543000000     0.225000000    -1.046000000
C     0.066000000    -1.252000000     0.703000000
H     1.029000000    -1.211000000     1.205000000
C    -0.755000000    -2.309000000     1.058000000
H    -0.444000000    -2.995000000     1.842000000
C    -1.930000000    -2.490000000     0.258000000
C    -2.857000000    -3.725000000     0.247000000
O    -2.436000000    -4.810000000     0.602000000
O    -4.025000000    -3.661000000    -0.097000000
