17
-90.98634
C    -2.553000000    -1.484000000    -0.884000000
H    -3.483000000    -1.482000000    -1.448000000
C    -1.620000000    -0.433000000    -1.032000000
H    -1.830000000     0.283000000    -1.823000000
C    -0.524000000    -0.460000000    -0.265000000
C     0.553000000     0.616000000    -0.497000000
H     0.421000000     1.325000000    -1.317000000
H     0.718000000     1.335000000     0.308000000
H     1.524000000     0.151000000    -0.684000000
C    -0.292000000    -1.441000000     0.719000000
H     0.618000000    -1.495000000     1.312000000
C    -1.284000000    -2.422000000     0.864000000
H    -1.136000000    -3.092000000     1.707000000
C    -2.433000000    -2.457000000     0.113000000
C    -3.416000000    -3.501000000     0.444000000
O    -3.154000000    -4.361000000     1.239000000
O    -4.591000000    -3.291000000     0.140000000
