17
-95.08184
C    -2.304000000    -1.926000000    -0.310000000
H    -3.216000000    -2.149000000    -0.857000000
C    -1.532000000    -0.807000000    -0.688000000
H    -1.928000000    -0.116000000    -1.427000000
C    -0.369000000    -0.397000000    -0.068000000
C     0.513000000     0.715000000    -0.501000000
H    -0.041000000     1.629000000    -0.723000000
H     1.190000000     0.918000000     0.332000000
H     1.133000000     0.472000000    -1.367000000
C     0.206000000    -1.294000000     0.827000000
H     1.147000000    -1.090000000     1.331000000
C    -0.539000000    -2.408000000     1.321000000
H    -0.142000000    -3.062000000     2.094000000
C    -1.763000000    -2.754000000     0.722000000
C    -2.544000000    -3.892000000     1.236000000
O    -2.050000000    -4.651000000     2.052000000
O    -3.717000000    -4.075000000     0.910000000
