17
-95.39889
C    -2.566000000    -0.810000000     0.632000000
H    -3.485000000    -0.430000000     1.069000000
C    -1.600000000     0.090000000     0.262000000
H    -1.865000000     1.142000000     0.340000000
C    -0.402000000    -0.386000000    -0.316000000
C     0.663000000     0.621000000    -0.740000000
H     0.340000000     1.051000000    -1.690000000
H     0.808000000     1.403000000     0.008000000
H     1.626000000     0.153000000    -0.953000000
C    -0.147000000    -1.756000000    -0.366000000
H     0.793000000    -2.089000000    -0.797000000
C    -1.127000000    -2.650000000    -0.009000000
H    -0.922000000    -3.711000000    -0.129000000
C    -2.308000000    -2.219000000     0.486000000
C    -3.310000000    -3.230000000     0.904000000
O    -3.148000000    -4.465000000     0.726000000
O    -4.407000000    -2.893000000     1.268000000
