17
-91.22057
C    -2.869000000    -0.135000000     0.344000000
H    -3.796000000     0.420000000     0.464000000
C    -1.633000000     0.558000000     0.248000000
H    -1.556000000     1.619000000     0.471000000
C    -0.441000000    -0.103000000    -0.120000000
C     0.761000000     0.760000000    -0.428000000
H     0.513000000     1.600000000    -1.080000000
H     1.244000000     1.040000000     0.511000000
H     1.467000000     0.086000000    -0.917000000
C    -0.373000000    -1.470000000    -0.302000000
H     0.541000000    -1.987000000    -0.580000000
C    -1.591000000    -2.179000000    -0.074000000
H    -1.603000000    -3.262000000    -0.168000000
C    -2.811000000    -1.547000000     0.235000000
C    -4.028000000    -2.327000000     0.577000000
O    -3.920000000    -3.429000000     0.921000000
O    -5.057000000    -1.666000000     0.724000000
