17
-98.00430
C    -2.235000000    -0.707000000     1.184000000
H    -3.143000000    -0.299000000     1.620000000
C    -1.113000000     0.060000000     0.816000000
H    -1.102000000     1.145000000     0.870000000
C     0.028000000    -0.464000000     0.234000000
C     1.094000000     0.534000000    -0.256000000
H     0.546000000     1.428000000    -0.563000000
H     1.947000000     0.722000000     0.401000000
H     1.441000000     0.199000000    -1.235000000
C     0.140000000    -1.846000000     0.040000000
H     1.027000000    -2.210000000    -0.472000000
C    -0.908000000    -2.658000000     0.408000000
H    -0.840000000    -3.740000000     0.326000000
C    -2.087000000    -2.119000000     1.022000000
C    -3.195000000    -3.049000000     1.492000000
O    -3.010000000    -4.245000000     1.326000000
O    -4.175000000    -2.598000000     2.023000000
