17
-97.06329
C    -2.271000000    -0.089000000     0.808000000
H    -3.143000000     0.413000000     1.219000000
C    -1.199000000     0.644000000     0.358000000
H    -1.029000000     1.705000000     0.527000000
C    -0.054000000     0.028000000    -0.161000000
C     1.187000000     0.879000000    -0.471000000
H     1.557000000     1.622000000     0.239000000
H     2.044000000     0.253000000    -0.731000000
H     0.948000000     1.470000000    -1.357000000
C    -0.083000000    -1.321000000    -0.411000000
H     0.723000000    -1.824000000    -0.939000000
C    -1.208000000    -2.104000000    -0.074000000
H    -1.248000000    -3.172000000    -0.271000000
C    -2.303000000    -1.481000000     0.615000000
C    -3.513000000    -2.302000000     1.058000000
O    -3.724000000    -3.443000000     0.660000000
O    -4.264000000    -1.783000000     1.841000000
