17
-91.41340
C    -2.388000000     0.166000000     0.848000000
H    -3.114000000     0.795000000     1.356000000
C    -1.221000000     0.743000000     0.492000000
H    -1.175000000     1.813000000     0.674000000
C    -0.161000000    -0.023000000     0.051000000
C     1.171000000     0.585000000    -0.232000000
H     1.712000000     0.518000000     0.714000000
H     1.689000000     0.090000000    -1.057000000
H     1.057000000     1.615000000    -0.576000000
C    -0.325000000    -1.351000000    -0.095000000
H     0.536000000    -1.932000000    -0.417000000
C    -1.494000000    -2.006000000     0.258000000
H    -1.540000000    -3.091000000     0.299000000
C    -2.557000000    -1.251000000     0.756000000
C    -3.693000000    -1.957000000     1.332000000
O    -3.552000000    -3.124000000     1.793000000
O    -4.740000000    -1.400000000     1.579000000
