17
-91.49420
C    -3.135000000     0.115000000     1.692000000
H    -3.735000000     0.652000000     2.423000000
C    -1.944000000     0.684000000     1.216000000
H    -1.640000000     1.678000000     1.533000000
C    -1.100000000     0.039000000     0.292000000
C     0.165000000     0.727000000    -0.253000000
H     0.387000000     1.753000000     0.048000000
H     1.081000000     0.170000000    -0.048000000
H    -0.022000000     0.805000000    -1.326000000
C    -1.401000000    -1.245000000    -0.094000000
H    -0.746000000    -1.804000000    -0.757000000
C    -2.632000000    -1.816000000     0.318000000
H    -2.782000000    -2.875000000     0.130000000
C    -3.483000000    -1.194000000     1.240000000
C    -4.677000000    -1.892000000     1.693000000
O    -4.841000000    -3.099000000     1.543000000
O    -5.314000000    -1.277000000     2.495000000
