17
-88.95862
C     0.782000000    -2.404000000    -1.306000000
H     0.777000000    -3.074000000    -2.162000000
C    -0.054000000    -1.253000000    -1.186000000
H    -0.791000000    -0.962000000    -1.930000000
C     0.205000000    -0.281000000    -0.205000000
C    -0.653000000     0.957000000    -0.160000000
H    -0.306000000     1.675000000     0.586000000
H    -0.530000000     1.528000000    -1.083000000
H    -1.667000000     0.633000000     0.081000000
C     1.179000000    -0.543000000     0.742000000
H     1.251000000     0.076000000     1.632000000
C     1.948000000    -1.739000000     0.654000000
H     2.584000000    -1.972000000     1.505000000
C     1.815000000    -2.635000000    -0.396000000
C     2.688000000    -3.862000000    -0.559000000
O     3.410000000    -4.154000000     0.379000000
O     2.502000000    -4.635000000    -1.407000000
