17
-99.41166
C    -2.887000000     0.029000000     2.135000000
H    -3.489000000     0.423000000     2.949000000
C    -1.838000000     0.786000000     1.599000000
H    -1.585000000     1.768000000     1.990000000
C    -1.174000000     0.325000000     0.433000000
C    -0.034000000     1.111000000    -0.067000000
H     0.058000000     1.009000000    -1.150000000
H    -0.147000000     2.168000000     0.183000000
H     0.862000000     0.720000000     0.420000000
C    -1.655000000    -0.743000000    -0.294000000
H    -1.197000000    -0.895000000    -1.268000000
C    -2.779000000    -1.453000000     0.208000000
H    -3.087000000    -2.299000000    -0.402000000
C    -3.414000000    -1.059000000     1.419000000
C    -4.613000000    -1.845000000     1.937000000
O    -5.014000000    -2.811000000     1.256000000
O    -5.217000000    -1.539000000     2.962000000
