17
-102.63892
C    -2.498000000    -0.059000000     0.769000000
H    -3.417000000     0.344000000     1.187000000
C    -1.403000000     0.695000000     0.432000000
H    -1.450000000     1.772000000     0.568000000
C    -0.277000000     0.064000000    -0.133000000
C     0.881000000     0.886000000    -0.542000000
H     0.546000000     1.779000000    -1.074000000
H     1.442000000     1.226000000     0.331000000
H     1.517000000     0.335000000    -1.238000000
C    -0.369000000    -1.298000000    -0.440000000
H     0.498000000    -1.808000000    -0.853000000
C    -1.481000000    -2.049000000    -0.154000000
H    -1.514000000    -3.111000000    -0.380000000
C    -2.496000000    -1.429000000     0.565000000
C    -3.721000000    -2.273000000     0.997000000
O    -3.762000000    -3.462000000     0.769000000
O    -4.687000000    -1.655000000     1.465000000
