17
-98.58296
C    -2.443000000    -0.233000000     0.018000000
H    -3.444000000     0.175000000     0.125000000
C    -1.256000000     0.479000000     0.118000000
H    -1.281000000     1.562000000     0.206000000
C    -0.060000000    -0.135000000    -0.116000000
C     1.227000000     0.740000000    -0.158000000
H     2.051000000     0.223000000    -0.655000000
H     1.015000000     1.695000000    -0.644000000
H     1.586000000     0.911000000     0.859000000
C    -0.011000000    -1.564000000    -0.245000000
H     0.927000000    -2.013000000    -0.564000000
C    -1.215000000    -2.300000000    -0.280000000
H    -1.213000000    -3.383000000    -0.364000000
C    -2.423000000    -1.639000000    -0.076000000
C    -3.658000000    -2.428000000    -0.171000000
O    -3.687000000    -3.622000000    -0.496000000
O    -4.724000000    -1.778000000    -0.048000000
