17
-87.40007
C    -2.743000000     0.170000000    -0.158000000
H    -3.626000000     0.763000000     0.066000000
C    -1.478000000     0.774000000    -0.241000000
H    -1.433000000     1.858000000    -0.174000000
C    -0.319000000     0.159000000    -0.562000000
C     0.947000000     1.013000000    -0.900000000
H     0.622000000     1.825000000    -1.554000000
H     1.473000000     1.330000000     0.003000000
H     1.711000000     0.459000000    -1.450000000
C    -0.313000000    -1.258000000    -0.492000000
H     0.604000000    -1.788000000    -0.735000000
C    -1.495000000    -1.943000000    -0.244000000
H    -1.439000000    -3.027000000    -0.309000000
C    -2.753000000    -1.259000000    -0.071000000
C    -4.006000000    -1.934000000     0.394000000
O    -4.018000000    -3.054000000     0.840000000
O    -4.997000000    -1.261000000     0.520000000
