17
-98.66912
C    -2.479000000    -0.602000000     0.323000000
H    -3.506000000    -0.262000000     0.434000000
C    -1.490000000     0.302000000    -0.049000000
H    -1.729000000     1.359000000    -0.134000000
C    -0.214000000    -0.202000000    -0.156000000
C     0.839000000     0.768000000    -0.565000000
H     1.122000000     1.374000000     0.298000000
H     1.738000000     0.251000000    -0.906000000
H     0.422000000     1.448000000    -1.311000000
C     0.077000000    -1.559000000    -0.055000000
H     1.072000000    -1.938000000    -0.275000000
C    -0.991000000    -2.443000000     0.117000000
H    -0.789000000    -3.511000000     0.130000000
C    -2.225000000    -1.959000000     0.367000000
C    -3.330000000    -2.889000000     0.707000000
O    -3.016000000    -4.059000000     0.885000000
O    -4.500000000    -2.526000000     0.685000000
