17
-100.92033
C    -2.404000000    -0.593000000     1.059000000
H    -3.255000000    -0.285000000     1.662000000
C    -1.439000000     0.315000000     0.600000000
H    -1.604000000     1.375000000     0.777000000
C    -0.268000000    -0.218000000     0.002000000
C     0.882000000     0.716000000    -0.464000000
H     0.474000000     1.554000000    -1.033000000
H     1.432000000     1.105000000     0.396000000
H     1.536000000     0.130000000    -1.113000000
C    -0.127000000    -1.625000000    -0.154000000
H     0.763000000    -2.041000000    -0.619000000
C    -1.152000000    -2.484000000     0.243000000
H    -1.032000000    -3.541000000     0.018000000
C    -2.280000000    -1.987000000     0.828000000
C    -3.376000000    -2.976000000     1.186000000
O    -3.271000000    -4.191000000     1.013000000
O    -4.452000000    -2.485000000     1.494000000
