17
-95.39180
C    -2.543000000    -0.356000000     0.273000000
H    -3.592000000    -0.076000000     0.301000000
C    -1.474000000     0.526000000     0.057000000
H    -1.701000000     1.588000000     0.116000000
C    -0.198000000    -0.018000000    -0.072000000
C     0.942000000     0.904000000    -0.366000000
H     1.405000000     1.130000000     0.596000000
H     1.600000000     0.368000000    -1.053000000
H     0.577000000     1.830000000    -0.816000000
C    -0.020000000    -1.386000000     0.022000000
H     0.993000000    -1.771000000    -0.059000000
C    -1.087000000    -2.205000000     0.207000000
H    -0.809000000    -3.247000000     0.341000000
C    -2.349000000    -1.704000000     0.370000000
C    -3.589000000    -2.557000000     0.664000000
O    -3.482000000    -3.766000000     0.473000000
O    -4.513000000    -2.097000000     1.288000000
