17
-101.59970
C    -2.814000000    -0.079000000     0.696000000
H    -3.657000000     0.511000000     1.045000000
C    -1.578000000     0.585000000     0.494000000
H    -1.567000000     1.661000000     0.644000000
C    -0.426000000    -0.115000000     0.191000000
C     0.856000000     0.612000000    -0.030000000
H     1.259000000     1.107000000     0.856000000
H     1.708000000     0.053000000    -0.421000000
H     0.614000000     1.448000000    -0.690000000
C    -0.504000000    -1.499000000    -0.002000000
H     0.347000000    -2.146000000    -0.200000000
C    -1.731000000    -2.169000000     0.085000000
H    -1.800000000    -3.251000000     0.008000000
C    -2.859000000    -1.444000000     0.510000000
C    -4.070000000    -2.283000000     0.858000000
O    -3.887000000    -3.475000000     1.174000000
O    -5.173000000    -1.783000000     0.889000000
