17
-89.64172
C    -2.999000000     0.002000000     1.380000000
H    -3.758000000     0.681000000     1.758000000
C    -1.868000000     0.655000000     0.865000000
H    -1.696000000     1.659000000     1.242000000
C    -0.888000000    -0.019000000     0.126000000
C     0.326000000     0.762000000    -0.236000000
H     1.144000000     0.588000000     0.466000000
H     0.558000000     0.791000000    -1.303000000
H     0.052000000     1.804000000    -0.057000000
C    -1.080000000    -1.322000000    -0.114000000
H    -0.323000000    -1.847000000    -0.692000000
C    -2.314000000    -1.932000000     0.165000000
H    -2.549000000    -2.900000000    -0.271000000
C    -3.201000000    -1.303000000     1.085000000
C    -4.494000000    -2.019000000     1.390000000
O    -4.647000000    -3.148000000     0.969000000
O    -5.420000000    -1.442000000     2.016000000
