17
-101.76170
C    -3.288000000    -0.914000000     0.668000000
H    -4.222000000    -0.432000000     0.945000000
C    -2.103000000    -0.178000000     0.678000000
H    -2.026000000     0.862000000     0.983000000
C    -0.957000000    -0.778000000     0.128000000
C     0.352000000     0.003000000    -0.002000000
H     0.171000000     0.935000000    -0.542000000
H     0.632000000     0.354000000     0.993000000
H     1.277000000    -0.452000000    -0.361000000
C    -0.984000000    -2.122000000    -0.310000000
H    -0.091000000    -2.598000000    -0.708000000
C    -2.177000000    -2.877000000    -0.248000000
H    -2.173000000    -3.915000000    -0.570000000
C    -3.297000000    -2.271000000     0.317000000
C    -4.613000000    -3.026000000     0.440000000
O    -4.621000000    -4.210000000     0.110000000
O    -5.569000000    -2.490000000     0.976000000
