17
-99.21063
C    -2.243000000    -0.799000000     0.556000000
H    -3.205000000    -0.581000000     1.015000000
C    -1.352000000     0.146000000     0.160000000
H    -1.673000000     1.174000000     0.307000000
C    -0.094000000    -0.224000000    -0.366000000
C     0.908000000     0.841000000    -0.700000000
H     1.805000000     0.298000000    -1.004000000
H     0.469000000     1.468000000    -1.479000000
H     1.205000000     1.454000000     0.154000000
C     0.162000000    -1.586000000    -0.484000000
H     1.060000000    -1.883000000    -1.019000000
C    -0.731000000    -2.591000000    -0.108000000
H    -0.496000000    -3.646000000    -0.228000000
C    -1.976000000    -2.185000000     0.418000000
C    -2.937000000    -3.268000000     0.812000000
O    -2.613000000    -4.442000000     0.796000000
O    -4.024000000    -2.937000000     1.252000000
