17
-92.07064
C    -1.345000000    -2.375000000    -1.031000000
H    -1.720000000    -2.785000000    -1.965000000
C    -0.874000000    -1.060000000    -1.003000000
H    -1.063000000    -0.411000000    -1.854000000
C    -0.110000000    -0.667000000     0.117000000
C     0.480000000     0.786000000     0.073000000
H    -0.359000000     1.483000000     0.035000000
H     0.984000000     0.977000000     1.022000000
H     1.065000000     0.814000000    -0.849000000
C     0.087000000    -1.479000000     1.237000000
H     0.675000000    -1.067000000     2.053000000
C    -0.487000000    -2.756000000     1.217000000
H    -0.420000000    -3.325000000     2.141000000
C    -1.144000000    -3.229000000     0.058000000
C    -1.720000000    -4.663000000     0.003000000
O    -1.758000000    -5.323000000     1.049000000
O    -2.520000000    -4.922000000    -0.859000000
