17
-99.48634
C    -1.735000000    -2.153000000    -0.625000000
H    -2.348000000    -2.641000000    -1.379000000
C    -1.132000000    -0.894000000    -0.866000000
H    -1.190000000    -0.310000000    -1.781000000
C    -0.312000000    -0.403000000     0.160000000
C     0.428000000     0.951000000     0.017000000
H     1.305000000     0.780000000    -0.611000000
H    -0.180000000     1.700000000    -0.495000000
H     0.832000000     1.394000000     0.930000000
C    -0.130000000    -1.072000000     1.359000000
H     0.576000000    -0.718000000     2.106000000
C    -0.759000000    -2.272000000     1.596000000
H    -0.692000000    -2.870000000     2.501000000
C    -1.556000000    -2.856000000     0.600000000
C    -2.327000000    -4.164000000     0.759000000
O    -2.695000000    -4.603000000     1.854000000
O    -2.645000000    -4.769000000    -0.252000000
