17
-98.32274
C    -1.443000000    -2.834000000    -1.635000000
H    -1.790000000    -3.123000000    -2.624000000
C    -0.734000000    -1.679000000    -1.557000000
H    -0.503000000    -1.149000000    -2.478000000
C    -0.260000000    -1.252000000    -0.352000000
C     0.485000000     0.083000000    -0.228000000
H     1.366000000     0.117000000    -0.871000000
H    -0.163000000     0.871000000    -0.617000000
H     0.877000000     0.293000000     0.770000000
C    -0.386000000    -2.027000000     0.823000000
H     0.138000000    -1.636000000     1.691000000
C    -1.115000000    -3.226000000     0.751000000
H    -1.235000000    -3.833000000     1.644000000
C    -1.561000000    -3.647000000    -0.478000000
C    -2.202000000    -5.029000000    -0.605000000
O    -2.575000000    -5.537000000     0.437000000
O    -2.423000000    -5.501000000    -1.696000000
