17
-88.69147
C    -1.944000000    -2.339000000    -1.700000000
H    -2.401000000    -2.597000000    -2.652000000
C    -1.277000000    -1.089000000    -1.602000000
H    -1.147000000    -0.565000000    -2.546000000
C    -0.602000000    -0.788000000    -0.460000000
C     0.324000000     0.366000000    -0.426000000
H     0.167000000     1.064000000    -1.251000000
H     0.129000000     0.783000000     0.564000000
H     1.340000000    -0.032000000    -0.457000000
C    -0.602000000    -1.664000000     0.602000000
H     0.071000000    -1.418000000     1.420000000
C    -1.451000000    -2.776000000     0.623000000
H    -1.324000000    -3.347000000     1.540000000
C    -2.143000000    -3.111000000    -0.527000000
C    -2.923000000    -4.357000000    -0.530000000
O    -3.326000000    -4.809000000     0.531000000
O    -3.349000000    -4.827000000    -1.562000000
