17
-90.53950
C    -1.635000000    -1.430000000    -0.968000000
H    -2.137000000    -1.898000000    -1.811000000
C    -0.618000000    -0.520000000    -1.071000000
H    -0.322000000    -0.146000000    -2.048000000
C     0.032000000    -0.161000000     0.037000000
C     1.242000000     0.742000000    -0.071000000
H     0.995000000     1.566000000    -0.743000000
H     1.601000000     1.212000000     0.847000000
H     2.042000000     0.232000000    -0.613000000
C    -0.295000000    -0.673000000     1.270000000
H     0.385000000    -0.403000000     2.074000000
C    -1.248000000    -1.663000000     1.425000000
H    -1.314000000    -2.286000000     2.313000000
C    -2.013000000    -1.982000000     0.246000000
C    -2.908000000    -3.171000000     0.364000000
O    -3.388000000    -3.473000000     1.445000000
O    -3.170000000    -3.814000000    -0.621000000
