17
-97.62988
C    -1.372000000    -2.019000000    -0.498000000
H    -1.931000000    -2.625000000    -1.206000000
C    -0.490000000    -1.045000000    -1.012000000
H    -0.273000000    -0.863000000    -2.061000000
C     0.214000000    -0.284000000    -0.094000000
C     1.226000000     0.786000000    -0.430000000
H     0.874000000     1.818000000    -0.374000000
H     2.096000000     0.609000000     0.206000000
H     1.515000000     0.639000000    -1.472000000
C    -0.059000000    -0.390000000     1.256000000
H     0.358000000     0.238000000     2.040000000
C    -1.050000000    -1.263000000     1.726000000
H    -1.234000000    -1.338000000     2.795000000
C    -1.609000000    -2.209000000     0.841000000
C    -2.620000000    -3.219000000     1.384000000
O    -2.953000000    -3.088000000     2.536000000
O    -3.128000000    -3.979000000     0.598000000
