17
-99.21908
C    -1.553000000    -1.711000000    -0.895000000
H    -2.050000000    -2.178000000    -1.741000000
C    -0.630000000    -0.710000000    -1.190000000
H    -0.314000000    -0.418000000    -2.188000000
C    -0.126000000    -0.027000000    -0.074000000
C     0.901000000     1.036000000    -0.455000000
H     1.749000000     1.045000000     0.234000000
H     1.347000000     0.800000000    -1.423000000
H     0.440000000     2.025000000    -0.473000000
C    -0.403000000    -0.381000000     1.243000000
H     0.011000000     0.175000000     2.080000000
C    -1.248000000    -1.441000000     1.476000000
H    -1.594000000    -1.802000000     2.441000000
C    -1.931000000    -2.097000000     0.412000000
C    -2.984000000    -3.101000000     0.721000000
O    -3.193000000    -3.436000000     1.865000000
O    -3.663000000    -3.493000000    -0.225000000
