17
-96.24759
C    -1.120000000    -2.097000000    -1.314000000
H    -1.447000000    -2.598000000    -2.221000000
C    -0.418000000    -0.874000000    -1.427000000
H    -0.310000000    -0.437000000    -2.417000000
C     0.036000000    -0.255000000    -0.281000000
C     1.025000000     0.811000000    -0.317000000
H     1.704000000     0.589000000    -1.143000000
H     0.504000000     1.741000000    -0.551000000
H     1.657000000     0.856000000     0.572000000
C    -0.227000000    -0.742000000     1.008000000
H     0.147000000    -0.296000000     1.926000000
C    -0.942000000    -1.938000000     1.173000000
H    -1.034000000    -2.370000000     2.166000000
C    -1.366000000    -2.634000000     0.009000000
C    -2.172000000    -3.900000000     0.145000000
O    -2.476000000    -4.321000000     1.285000000
O    -2.624000000    -4.419000000    -0.847000000
