17
-96.27802
C    -2.034000000    -1.546000000    -0.756000000
H    -2.727000000    -1.831000000    -1.544000000
C    -1.009000000    -0.616000000    -1.017000000
H    -0.908000000    -0.073000000    -1.953000000
C    -0.041000000    -0.400000000    -0.044000000
C     1.027000000     0.655000000    -0.254000000
H     1.788000000     0.620000000     0.528000000
H     1.592000000     0.480000000    -1.172000000
H     0.624000000     1.665000000    -0.353000000
C    -0.116000000    -1.051000000     1.167000000
H     0.638000000    -0.871000000     1.928000000
C    -1.201000000    -1.967000000     1.425000000
H    -1.141000000    -2.523000000     2.357000000
C    -2.093000000    -2.228000000     0.421000000
C    -3.353000000    -3.146000000     0.670000000
O    -3.235000000    -4.086000000     1.418000000
O    -4.360000000    -3.024000000     0.014000000
