17
-86.93137
C     1.049000000    -2.423000000    -1.379000000
H     1.014000000    -3.041000000    -2.272000000
C     0.095000000    -1.350000000    -1.202000000
H    -0.781000000    -1.225000000    -1.833000000
C     0.146000000    -0.439000000    -0.152000000
C    -0.860000000     0.655000000     0.002000000
H    -1.277000000     0.973000000    -0.956000000
H    -1.672000000     0.270000000     0.623000000
H    -0.424000000     1.466000000     0.588000000
C     1.206000000    -0.573000000     0.795000000
H     1.242000000     0.222000000     1.536000000
C     2.195000000    -1.600000000     0.583000000
H     3.045000000    -1.604000000     1.260000000
C     2.157000000    -2.494000000    -0.518000000
C     3.260000000    -3.581000000    -0.609000000
O     4.146000000    -3.707000000     0.252000000
O     3.005000000    -4.618000000    -1.204000000
