17
-96.49200
C    -1.842000000    -2.570000000    -1.074000000
H    -2.143000000    -2.943000000    -2.050000000
C    -1.052000000    -1.453000000    -1.074000000
H    -0.721000000    -1.036000000    -2.021000000
C    -0.575000000    -0.837000000     0.087000000
C     0.297000000     0.406000000     0.071000000
H     1.205000000     0.105000000    -0.456000000
H    -0.234000000     1.236000000    -0.400000000
H     0.672000000     0.698000000     1.054000000
C    -0.911000000    -1.349000000     1.319000000
H    -0.713000000    -0.915000000     2.297000000
C    -1.682000000    -2.466000000     1.337000000
H    -1.865000000    -2.872000000     2.328000000
C    -2.141000000    -3.112000000     0.173000000
C    -2.903000000    -4.385000000     0.324000000
O    -3.484000000    -4.539000000     1.428000000
O    -3.113000000    -5.144000000    -0.608000000
