17
-88.76312
C    -1.264000000    -2.255000000    -1.380000000
H    -1.513000000    -2.648000000    -2.362000000
C    -0.644000000    -1.020000000    -1.170000000
H    -0.236000000    -0.449000000    -2.000000000
C    -0.217000000    -0.626000000     0.068000000
C     0.617000000     0.549000000     0.286000000
H     1.580000000     0.290000000    -0.159000000
H     0.235000000     1.381000000    -0.310000000
H     0.880000000     0.823000000     1.310000000
C    -0.627000000    -1.372000000     1.193000000
H    -0.364000000    -1.079000000     2.206000000
C    -1.349000000    -2.543000000     1.036000000
H    -1.713000000    -3.175000000     1.842000000
C    -1.628000000    -2.975000000    -0.309000000
C    -2.231000000    -4.345000000    -0.531000000
O    -2.506000000    -5.049000000     0.394000000
O    -2.441000000    -4.770000000    -1.628000000
