17
-98.88607
C    -0.863000000    -2.251000000    -1.271000000
H    -1.329000000    -2.734000000    -2.125000000
C    -0.263000000    -1.022000000    -1.435000000
H    -0.207000000    -0.564000000    -2.419000000
C     0.273000000    -0.369000000    -0.278000000
C     1.035000000     0.889000000    -0.432000000
H     1.987000000     0.772000000     0.091000000
H     1.279000000     1.255000000    -1.432000000
H     0.573000000     1.769000000     0.020000000
C     0.134000000    -1.028000000     0.933000000
H     0.424000000    -0.510000000     1.844000000
C    -0.678000000    -2.142000000     1.139000000
H    -0.927000000    -2.515000000     2.129000000
C    -1.121000000    -2.805000000     0.008000000
C    -2.026000000    -4.050000000     0.145000000
O    -2.506000000    -4.305000000     1.258000000
O    -2.289000000    -4.733000000    -0.813000000
