17
-99.01779
C     1.216000000    -1.887000000    -1.957000000
H     1.063000000    -2.570000000    -2.788000000
C     0.211000000    -0.951000000    -1.535000000
H    -0.727000000    -0.942000000    -2.084000000
C     0.458000000    -0.076000000    -0.487000000
C    -0.552000000     1.010000000    -0.151000000
H    -1.562000000     0.739000000    -0.464000000
H    -0.542000000     1.062000000     0.940000000
H    -0.189000000     1.963000000    -0.541000000
C     1.671000000    -0.210000000     0.187000000
H     1.922000000     0.450000000     1.013000000
C     2.765000000    -0.990000000    -0.309000000
H     3.788000000    -1.061000000     0.053000000
C     2.483000000    -1.856000000    -1.363000000
C     3.482000000    -2.887000000    -1.915000000
O     4.651000000    -2.691000000    -1.630000000
O     3.052000000    -3.858000000    -2.494000000
