17
-94.49442
C    -1.567000000    -1.661000000    -1.668000000
H    -2.210000000    -1.725000000    -2.542000000
C    -0.714000000    -0.609000000    -1.366000000
H    -0.730000000     0.154000000    -2.140000000
C     0.192000000    -0.623000000    -0.283000000
C     1.049000000     0.668000000     0.070000000
H     0.712000000     1.501000000    -0.551000000
H     0.841000000     0.930000000     1.109000000
H     2.091000000     0.498000000    -0.211000000
C     0.129000000    -1.692000000     0.611000000
H     0.709000000    -1.744000000     1.529000000
C    -0.820000000    -2.753000000     0.372000000
H    -0.878000000    -3.512000000     1.148000000
C    -1.625000000    -2.768000000    -0.762000000
C    -2.710000000    -3.781000000    -0.986000000
O    -2.902000000    -4.701000000    -0.168000000
O    -3.530000000    -3.656000000    -1.878000000
