17
-90.13400
C    -1.022000000    -2.110000000    -1.074000000
H    -1.699000000    -2.465000000    -1.847000000
C    -0.614000000    -0.807000000    -1.173000000
H    -1.020000000    -0.154000000    -1.942000000
C     0.198000000    -0.246000000    -0.147000000
C     0.583000000     1.186000000    -0.213000000
H     0.716000000     1.528000000     0.816000000
H     1.572000000     1.250000000    -0.671000000
H    -0.092000000     1.758000000    -0.853000000
C     0.582000000    -1.026000000     0.935000000
H     1.084000000    -0.531000000     1.763000000
C     0.114000000    -2.369000000     1.001000000
H     0.375000000    -3.088000000     1.773000000
C    -0.611000000    -2.926000000    -0.051000000
C    -0.869000000    -4.383000000    -0.061000000
O    -0.306000000    -5.234000000     0.548000000
O    -1.865000000    -4.727000000    -0.693000000
