17
-94.25736
C    -0.954000000    -2.294000000    -1.132000000
H    -1.508000000    -2.897000000    -1.847000000
C    -0.532000000    -0.930000000    -1.185000000
H    -0.787000000    -0.416000000    -2.108000000
C     0.099000000    -0.288000000    -0.116000000
C     0.506000000     1.150000000    -0.129000000
H    -0.282000000     1.686000000     0.404000000
H     1.370000000     1.181000000     0.538000000
H     0.808000000     1.573000000    -1.090000000
C     0.383000000    -1.051000000     1.007000000
H     0.744000000    -0.582000000     1.919000000
C    -0.061000000    -2.333000000     1.153000000
H    -0.030000000    -2.810000000     2.130000000
C    -0.713000000    -2.953000000     0.052000000
C    -1.320000000    -4.337000000     0.196000000
O    -1.345000000    -4.919000000     1.284000000
O    -1.881000000    -4.900000000    -0.749000000
