17
-96.56330
C    -2.435000000    -1.413000000    -0.918000000
H    -3.385000000    -1.444000000    -1.446000000
C    -1.468000000    -0.484000000    -1.086000000
H    -1.688000000     0.226000000    -1.879000000
C    -0.242000000    -0.476000000    -0.408000000
C     0.743000000     0.622000000    -0.606000000
H     1.284000000     0.823000000     0.321000000
H     1.545000000     0.449000000    -1.327000000
H     0.231000000     1.536000000    -0.913000000
C     0.018000000    -1.549000000     0.442000000
H     0.916000000    -1.541000000     1.053000000
C    -0.941000000    -2.499000000     0.650000000
H    -0.724000000    -3.343000000     1.300000000
C    -2.192000000    -2.489000000    -0.040000000
C    -3.070000000    -3.691000000     0.067000000
O    -2.771000000    -4.714000000     0.649000000
O    -4.235000000    -3.558000000    -0.336000000
