17
-97.13159
C    -3.443000000    -2.558000000    -0.106000000
H    -4.527000000    -2.516000000    -0.043000000
C    -2.640000000    -1.544000000     0.382000000
H    -3.151000000    -0.650000000     0.730000000
C    -1.220000000    -1.628000000     0.292000000
C    -0.406000000    -0.430000000     0.730000000
H     0.640000000    -0.741000000     0.685000000
H    -0.588000000     0.345000000    -0.016000000
H    -0.693000000    -0.118000000     1.737000000
C    -0.623000000    -2.778000000    -0.166000000
H     0.463000000    -2.784000000    -0.131000000
C    -1.463000000    -3.888000000    -0.509000000
H    -0.975000000    -4.804000000    -0.832000000
C    -2.864000000    -3.756000000    -0.558000000
C    -3.789000000    -4.934000000    -0.909000000
O    -3.299000000    -5.941000000    -1.474000000
O    -5.000000000    -4.830000000    -0.917000000
