17
-91.03513
C    -2.781000000    -1.006000000     0.618000000
H    -3.763000000    -0.692000000     0.963000000
C    -1.781000000    -0.046000000     0.552000000
H    -2.060000000     0.939000000     0.917000000
C    -0.491000000    -0.375000000     0.096000000
C     0.639000000     0.636000000    -0.140000000
H     1.250000000     0.390000000    -1.011000000
H     0.177000000     1.615000000    -0.285000000
H     1.375000000     0.686000000     0.665000000
C    -0.302000000    -1.657000000    -0.269000000
H     0.733000000    -1.937000000    -0.447000000
C    -1.282000000    -2.671000000    -0.182000000
H    -1.068000000    -3.669000000    -0.556000000
C    -2.585000000    -2.347000000     0.239000000
C    -3.665000000    -3.361000000    -0.003000000
O    -3.374000000    -4.400000000    -0.565000000
O    -4.715000000    -3.293000000     0.581000000
