17
-94.69984
C    -2.195000000    -1.032000000     1.116000000
H    -3.153000000    -0.879000000     1.606000000
C    -1.454000000     0.078000000     0.746000000
H    -1.874000000     1.052000000     0.982000000
C    -0.209000000    -0.020000000     0.051000000
C     0.536000000     1.226000000    -0.385000000
H     1.608000000     1.058000000    -0.514000000
H     0.205000000     1.516000000    -1.385000000
H     0.343000000     2.050000000     0.304000000
C     0.329000000    -1.312000000    -0.140000000
H     1.315000000    -1.503000000    -0.558000000
C    -0.527000000    -2.434000000     0.176000000
H    -0.246000000    -3.471000000     0.007000000
C    -1.781000000    -2.338000000     0.829000000
C    -2.669000000    -3.581000000     1.206000000
O    -2.385000000    -4.723000000     0.957000000
O    -3.646000000    -3.271000000     1.798000000
