17
-99.61328
C    -1.663000000    -1.544000000     1.782000000
H    -2.433000000    -1.389000000     2.533000000
C    -1.095000000    -0.417000000     1.113000000
H    -1.489000000     0.570000000     1.343000000
C    -0.160000000    -0.541000000     0.133000000
C     0.308000000     0.716000000    -0.545000000
H     0.147000000     1.531000000     0.163000000
H     1.369000000     0.601000000    -0.775000000
H    -0.274000000     0.847000000    -1.459000000
C     0.361000000    -1.800000000    -0.224000000
H     1.187000000    -1.823000000    -0.930000000
C    -0.131000000    -2.902000000     0.408000000
H     0.262000000    -3.883000000     0.153000000
C    -1.147000000    -2.806000000     1.417000000
C    -1.772000000    -4.015000000     2.045000000
O    -1.147000000    -5.053000000     1.932000000
O    -2.879000000    -3.954000000     2.535000000
