17
-91.50351
C    -1.797000000    -1.014000000     1.104000000
H    -2.782000000    -0.857000000     1.534000000
C    -1.121000000     0.058000000     0.508000000
H    -1.692000000     0.981000000     0.572000000
C     0.091000000    -0.147000000    -0.038000000
C     0.844000000     1.029000000    -0.506000000
H     0.553000000     1.480000000    -1.457000000
H     0.714000000     1.650000000     0.383000000
H     1.921000000     0.901000000    -0.380000000
C     0.653000000    -1.434000000     0.027000000
H     1.594000000    -1.757000000    -0.411000000
C     0.038000000    -2.455000000     0.678000000
H     0.541000000    -3.417000000     0.732000000
C    -1.208000000    -2.250000000     1.257000000
C    -1.855000000    -3.454000000     1.955000000
O    -1.444000000    -4.583000000     1.661000000
O    -2.810000000    -3.298000000     2.694000000
