17
-91.85075
C    -2.437000000    -0.385000000     0.840000000
H    -3.380000000     0.132000000     0.995000000
C    -1.426000000     0.432000000     0.383000000
H    -1.573000000     1.491000000     0.184000000
C    -0.190000000    -0.193000000     0.055000000
C     0.905000000     0.713000000    -0.483000000
H     0.477000000     1.561000000    -1.021000000
H     1.502000000     1.060000000     0.363000000
H     1.578000000     0.220000000    -1.188000000
C    -0.042000000    -1.502000000     0.278000000
H     0.967000000    -1.861000000     0.087000000
C    -1.069000000    -2.319000000     0.743000000
H    -0.940000000    -3.391000000     0.871000000
C    -2.306000000    -1.764000000     1.060000000
C    -3.403000000    -2.504000000     1.775000000
O    -3.138000000    -3.481000000     2.449000000
O    -4.573000000    -2.214000000     1.727000000
