17
-90.53738
C    -2.054000000    -0.390000000     0.971000000
H    -2.889000000     0.029000000     1.526000000
C    -1.161000000     0.450000000     0.370000000
H    -1.235000000     1.533000000     0.330000000
C     0.010000000    -0.040000000    -0.149000000
C     0.999000000     0.864000000    -0.736000000
H     0.757000000     1.226000000    -1.738000000
H     0.921000000     1.767000000    -0.127000000
H     1.970000000     0.364000000    -0.728000000
C     0.332000000    -1.382000000     0.013000000
H     1.255000000    -1.828000000    -0.350000000
C    -0.614000000    -2.328000000     0.496000000
H    -0.300000000    -3.357000000     0.653000000
C    -1.771000000    -1.795000000     1.051000000
C    -2.757000000    -2.733000000     1.695000000
O    -2.420000000    -3.882000000     1.975000000
O    -3.737000000    -2.262000000     2.222000000
