17
-87.48711
C    -1.539000000    -0.401000000     1.653000000
H    -2.348000000     0.010000000     2.252000000
C    -0.857000000     0.574000000     0.922000000
H    -1.099000000     1.634000000     0.894000000
C     0.244000000     0.129000000     0.184000000
C     1.106000000     1.066000000    -0.561000000
H     1.858000000     0.486000000    -1.100000000
H     0.501000000     1.603000000    -1.295000000
H     1.596000000     1.802000000     0.079000000
C     0.612000000    -1.223000000     0.111000000
H     1.447000000    -1.620000000    -0.461000000
C    -0.135000000    -2.152000000     0.855000000
H     0.167000000    -3.190000000     0.738000000
C    -1.205000000    -1.787000000     1.651000000
C    -1.944000000    -2.828000000     2.444000000
O    -1.532000000    -3.906000000     2.799000000
O    -3.005000000    -2.524000000     2.855000000
