17
-95.67500
C    -2.520000000     0.348000000     1.780000000
H    -3.429000000     0.937000000     1.871000000
C    -1.548000000     0.720000000     0.773000000
H    -1.820000000     1.558000000     0.137000000
C    -0.340000000    -0.079000000     0.643000000
C     0.654000000     0.288000000    -0.416000000
H     1.185000000     1.183000000    -0.085000000
H     1.355000000    -0.526000000    -0.612000000
H     0.314000000     0.571000000    -1.414000000
C    -0.071000000    -1.107000000     1.544000000
H     0.892000000    -1.599000000     1.434000000
C    -1.034000000    -1.487000000     2.511000000
H    -0.907000000    -2.337000000     3.177000000
C    -2.220000000    -0.753000000     2.603000000
C    -3.267000000    -1.293000000     3.611000000
O    -3.197000000    -2.391000000     4.136000000
O    -4.225000000    -0.600000000     3.848000000
