17
-101.10730
C    -2.382000000    -0.688000000     1.173000000
H    -3.354000000    -0.354000000     1.528000000
C    -1.444000000     0.231000000     0.716000000
H    -1.652000000     1.298000000     0.679000000
C    -0.191000000    -0.255000000     0.256000000
C     0.889000000     0.742000000    -0.147000000
H     0.793000000     1.090000000    -1.177000000
H     0.972000000     1.600000000     0.524000000
H     1.903000000     0.340000000    -0.130000000
C     0.071000000    -1.629000000     0.290000000
H     0.992000000    -2.102000000    -0.040000000
C    -0.880000000    -2.552000000     0.717000000
H    -0.599000000    -3.592000000     0.572000000
C    -2.116000000    -2.051000000     1.150000000
C    -3.187000000    -2.984000000     1.632000000
O    -2.953000000    -4.163000000     1.828000000
O    -4.379000000    -2.543000000     1.691000000
