17
-89.74052
C    -2.152000000    -1.054000000     1.703000000
H    -2.991000000    -0.843000000     2.361000000
C    -1.367000000     0.016000000     1.126000000
H    -1.551000000     1.059000000     1.372000000
C    -0.266000000    -0.315000000     0.375000000
C     0.530000000     0.727000000    -0.202000000
H     0.018000000     0.944000000    -1.142000000
H     0.437000000     1.661000000     0.357000000
H     1.551000000     0.347000000    -0.132000000
C     0.095000000    -1.639000000     0.062000000
H     0.933000000    -1.802000000    -0.611000000
C    -0.638000000    -2.667000000     0.711000000
H    -0.489000000    -3.732000000     0.551000000
C    -1.809000000    -2.390000000     1.437000000
C    -2.724000000    -3.432000000     1.988000000
O    -2.591000000    -4.622000000     1.694000000
O    -3.685000000    -3.000000000     2.561000000
