17
-88.33396
C    -1.733000000    -2.207000000     1.109000000
H    -2.583000000    -2.299000000     1.780000000
C    -1.194000000    -0.951000000     0.865000000
H    -1.461000000    -0.061000000     1.429000000
C    -0.154000000    -0.901000000    -0.057000000
C     0.430000000     0.475000000    -0.312000000
H     1.123000000     0.565000000    -1.151000000
H    -0.472000000     1.090000000    -0.323000000
H     0.987000000     0.825000000     0.560000000
C     0.394000000    -2.043000000    -0.611000000
H     1.247000000    -1.919000000    -1.273000000
C    -0.224000000    -3.265000000    -0.396000000
H     0.147000000    -4.179000000    -0.853000000
C    -1.292000000    -3.376000000     0.525000000
C    -1.827000000    -4.679000000     0.780000000
O    -1.517000000    -5.647000000     0.149000000
O    -2.625000000    -4.870000000     1.686000000
