17
-86.90633
C    -1.511000000    -0.892000000     1.499000000
H    -2.260000000    -0.728000000     2.269000000
C    -0.783000000     0.153000000     0.851000000
H    -1.013000000     1.213000000     0.922000000
C     0.194000000    -0.224000000    -0.052000000
C     1.001000000     0.796000000    -0.652000000
H     1.815000000     0.233000000    -1.112000000
H     0.443000000     1.345000000    -1.413000000
H     1.288000000     1.498000000     0.133000000
C     0.516000000    -1.548000000    -0.314000000
H     1.278000000    -1.838000000    -1.033000000
C    -0.249000000    -2.587000000     0.268000000
H    -0.084000000    -3.620000000    -0.027000000
C    -1.295000000    -2.253000000     1.185000000
C    -2.175000000    -3.296000000     1.775000000
O    -1.947000000    -4.469000000     1.831000000
O    -3.306000000    -2.963000000     2.118000000
