17
-92.71328
C    -2.046000000    -1.326000000     0.944000000
H    -2.926000000    -1.104000000     1.542000000
C    -1.195000000    -0.230000000     0.627000000
H    -1.493000000     0.801000000     0.796000000
C     0.021000000    -0.476000000     0.115000000
C     0.903000000     0.667000000    -0.308000000
H     1.979000000     0.586000000    -0.142000000
H     0.829000000     0.796000000    -1.390000000
H     0.591000000     1.646000000     0.061000000
C     0.470000000    -1.766000000    -0.039000000
H     1.356000000    -1.965000000    -0.636000000
C    -0.308000000    -2.874000000     0.372000000
H    -0.022000000    -3.910000000     0.213000000
C    -1.593000000    -2.635000000     0.896000000
C    -2.423000000    -3.888000000     1.283000000
O    -1.972000000    -5.025000000     1.098000000
O    -3.597000000    -3.783000000     1.545000000
