17
-85.92100
C     0.610000000    -2.398000000    -1.087000000
H     0.506000000    -3.155000000    -1.859000000
C    -0.024000000    -1.188000000    -1.194000000
H    -0.457000000    -0.947000000    -2.161000000
C     0.039000000    -0.154000000    -0.222000000
C    -0.865000000     1.099000000    -0.241000000
H    -1.252000000     1.188000000    -1.258000000
H    -1.611000000     0.857000000     0.519000000
H    -0.250000000     2.000000000    -0.198000000
C     0.784000000    -0.362000000     0.918000000
H     0.819000000     0.448000000     1.641000000
C     1.454000000    -1.585000000     1.032000000
H     1.932000000    -1.729000000     1.998000000
C     1.394000000    -2.618000000     0.041000000
C     2.092000000    -3.948000000     0.111000000
O     3.087000000    -4.106000000     0.825000000
O     1.839000000    -4.742000000    -0.719000000
