17
-94.45734
C    -2.377000000    -0.456000000     0.705000000
H    -3.305000000    -0.080000000     1.129000000
C    -1.351000000     0.416000000     0.284000000
H    -1.569000000     1.474000000     0.402000000
C    -0.095000000     0.046000000    -0.065000000
C     1.040000000     1.030000000    -0.420000000
H     1.436000000     0.957000000    -1.436000000
H     0.719000000     2.057000000    -0.237000000
H     1.956000000     0.851000000     0.147000000
C     0.130000000    -1.326000000    -0.127000000
H     1.120000000    -1.685000000    -0.398000000
C    -0.927000000    -2.243000000     0.203000000
H    -0.680000000    -3.300000000     0.135000000
C    -2.130000000    -1.837000000     0.745000000
C    -3.093000000    -2.788000000     1.334000000
O    -2.860000000    -3.987000000     1.391000000
O    -4.210000000    -2.387000000     1.635000000
