17
-92.25630
C    -2.773000000    -0.436000000     0.311000000
H    -3.720000000     0.036000000     0.563000000
C    -1.772000000     0.423000000     0.062000000
H    -1.957000000     1.491000000     0.147000000
C    -0.491000000    -0.092000000    -0.179000000
C     0.692000000     0.846000000    -0.283000000
H     0.334000000     1.830000000    -0.589000000
H     1.143000000     0.901000000     0.710000000
H     1.399000000     0.457000000    -1.019000000
C    -0.238000000    -1.440000000    -0.328000000
H     0.725000000    -1.871000000    -0.591000000
C    -1.299000000    -2.335000000    -0.086000000
H    -1.106000000    -3.404000000    -0.122000000
C    -2.543000000    -1.828000000     0.357000000
C    -3.609000000    -2.661000000     0.928000000
O    -3.537000000    -3.842000000     0.776000000
O    -4.571000000    -2.128000000     1.414000000
