17
-87.46094
C    -3.216000000    -0.266000000     0.351000000
H    -4.066000000     0.264000000     0.773000000
C    -1.972000000     0.327000000     0.326000000
H    -1.837000000     1.294000000     0.805000000
C    -0.923000000    -0.326000000    -0.305000000
C     0.541000000     0.094000000    -0.104000000
H     0.813000000     0.681000000    -0.984000000
H     0.878000000     0.656000000     0.770000000
H     1.085000000    -0.823000000    -0.340000000
C    -1.107000000    -1.570000000    -0.918000000
H    -0.358000000    -2.171000000    -1.428000000
C    -2.385000000    -2.109000000    -1.007000000
H    -2.524000000    -3.022000000    -1.579000000
C    -3.475000000    -1.386000000    -0.413000000
C    -4.820000000    -2.190000000    -0.312000000
O    -4.993000000    -3.291000000    -0.928000000
O    -5.771000000    -1.723000000     0.241000000
