17
-92.24299
C    -2.389000000     0.608000000     0.200000000
H    -3.096000000     1.376000000     0.505000000
C    -1.088000000     0.925000000     0.330000000
H    -0.813000000     1.835000000     0.857000000
C    -0.137000000     0.045000000    -0.147000000
C     1.348000000     0.490000000    -0.072000000
H     1.468000000     1.555000000    -0.279000000
H     1.798000000     0.305000000     0.906000000
H     1.880000000    -0.028000000    -0.873000000
C    -0.529000000    -1.169000000    -0.687000000
H     0.246000000    -1.823000000    -1.077000000
C    -1.856000000    -1.559000000    -0.700000000
H    -2.139000000    -2.539000000    -1.075000000
C    -2.832000000    -0.574000000    -0.319000000
C    -4.322000000    -0.858000000    -0.306000000
O    -4.748000000    -1.799000000    -0.888000000
O    -5.092000000    -0.225000000     0.426000000
