17
-94.47192
C    -2.781000000     0.098000000     0.599000000
H    -3.626000000     0.696000000     0.932000000
C    -1.413000000     0.511000000     0.479000000
H    -1.175000000     1.425000000     1.018000000
C    -0.438000000    -0.158000000    -0.187000000
C     0.950000000     0.390000000    -0.413000000
H     1.394000000     0.634000000     0.555000000
H     1.504000000    -0.437000000    -0.862000000
H     0.950000000     1.273000000    -1.055000000
C    -0.852000000    -1.366000000    -0.793000000
H    -0.050000000    -1.953000000    -1.233000000
C    -2.174000000    -1.827000000    -0.717000000
H    -2.433000000    -2.796000000    -1.136000000
C    -3.189000000    -1.108000000    -0.055000000
C    -4.633000000    -1.623000000    -0.023000000
O    -4.814000000    -2.745000000    -0.462000000
O    -5.478000000    -1.073000000     0.656000000
