17
-87.27631
C    -2.574000000    -0.187000000     0.310000000
H    -3.519000000     0.295000000     0.548000000
C    -1.432000000     0.575000000     0.371000000
H    -1.564000000     1.617000000     0.650000000
C    -0.220000000     0.103000000    -0.072000000
C     1.029000000     0.910000000     0.064000000
H     1.607000000     0.513000000     0.901000000
H     1.647000000     0.888000000    -0.836000000
H     0.888000000     1.967000000     0.300000000
C    -0.190000000    -1.184000000    -0.515000000
H     0.768000000    -1.490000000    -0.927000000
C    -1.299000000    -2.018000000    -0.497000000
H    -1.172000000    -3.087000000    -0.647000000
C    -2.487000000    -1.515000000     0.007000000
C    -3.749000000    -2.335000000     0.007000000
O    -3.513000000    -3.520000000     0.154000000
O    -4.831000000    -1.905000000     0.337000000
