17
-87.96061
C    -2.732000000    -0.426000000     0.299000000
H    -3.633000000    -0.046000000     0.773000000
C    -1.630000000     0.408000000     0.416000000
H    -1.717000000     1.431000000     0.773000000
C    -0.440000000    -0.173000000     0.004000000
C     0.923000000     0.537000000     0.062000000
H     1.582000000     0.271000000    -0.767000000
H     0.773000000     1.617000000     0.008000000
H     1.490000000     0.295000000     0.964000000
C    -0.383000000    -1.466000000    -0.465000000
H     0.577000000    -1.883000000    -0.758000000
C    -1.503000000    -2.250000000    -0.621000000
H    -1.452000000    -3.273000000    -0.984000000
C    -2.778000000    -1.673000000    -0.245000000
C    -4.014000000    -2.540000000    -0.135000000
O    -3.959000000    -3.720000000    -0.268000000
O    -5.047000000    -2.056000000     0.194000000
