17
-95.91112
C    -2.887000000    -0.914000000    -0.151000000
H    -3.846000000    -0.525000000     0.180000000
C    -1.801000000    -0.006000000    -0.047000000
H    -1.937000000     1.040000000     0.214000000
C    -0.492000000    -0.415000000    -0.429000000
C     0.652000000     0.586000000    -0.441000000
H     1.334000000     0.507000000     0.409000000
H     1.270000000     0.355000000    -1.311000000
H     0.235000000     1.578000000    -0.627000000
C    -0.330000000    -1.777000000    -0.815000000
H     0.630000000    -2.128000000    -1.187000000
C    -1.383000000    -2.680000000    -0.824000000
H    -1.162000000    -3.741000000    -0.916000000
C    -2.671000000    -2.270000000    -0.518000000
C    -3.818000000    -3.268000000    -0.451000000
O    -3.614000000    -4.441000000    -0.078000000
O    -4.966000000    -2.881000000    -0.465000000
