17
-98.85428
C    -2.413000000     0.017000000     0.006000000
H    -3.181000000     0.685000000     0.388000000
C    -1.140000000     0.514000000    -0.095000000
H    -0.898000000     1.559000000     0.080000000
C    -0.079000000    -0.353000000    -0.458000000
C     1.263000000     0.317000000    -0.576000000
H     1.868000000    -0.188000000    -1.331000000
H     1.218000000     1.363000000    -0.889000000
H     1.689000000     0.255000000     0.428000000
C    -0.276000000    -1.687000000    -0.742000000
H     0.578000000    -2.305000000    -1.009000000
C    -1.576000000    -2.229000000    -0.747000000
H    -1.785000000    -3.281000000    -0.926000000
C    -2.621000000    -1.387000000    -0.255000000
C    -4.024000000    -1.913000000    -0.104000000
O    -4.205000000    -3.135000000     0.072000000
O    -4.967000000    -1.141000000     0.030000000
