17
-90.08512
C    -3.197000000    -0.919000000    -0.042000000
H    -4.095000000    -0.367000000     0.222000000
C    -2.009000000    -0.248000000    -0.056000000
H    -2.049000000     0.714000000     0.448000000
C    -0.846000000    -0.737000000    -0.596000000
C     0.509000000     0.012000000    -0.526000000
H     0.973000000    -0.326000000     0.403000000
H     1.237000000    -0.324000000    -1.268000000
H     0.281000000     1.079000000    -0.554000000
C    -0.817000000    -2.038000000    -1.090000000
H     0.034000000    -2.379000000    -1.673000000
C    -1.979000000    -2.773000000    -1.058000000
H    -2.054000000    -3.703000000    -1.615000000
C    -3.201000000    -2.221000000    -0.569000000
C    -4.556000000    -2.889000000    -0.893000000
O    -4.529000000    -4.008000000    -1.347000000
O    -5.550000000    -2.379000000    -0.490000000
