17
-94.22382
C     0.673000000    -2.068000000    -0.933000000
H     0.453000000    -2.783000000    -1.722000000
C    -0.017000000    -0.790000000    -0.922000000
H    -0.617000000    -0.542000000    -1.794000000
C     0.249000000     0.102000000     0.072000000
C    -0.539000000     1.377000000     0.180000000
H    -1.611000000     1.201000000     0.069000000
H    -0.418000000     1.776000000     1.190000000
H    -0.180000000     2.039000000    -0.611000000
C     1.053000000    -0.300000000     1.177000000
H     1.252000000     0.359000000     2.019000000
C     1.679000000    -1.520000000     1.244000000
H     2.297000000    -1.801000000     2.093000000
C     1.555000000    -2.405000000     0.128000000
C     2.172000000    -3.786000000     0.220000000
O     2.573000000    -4.060000000     1.355000000
O     1.895000000    -4.659000000    -0.572000000
