17
-98.37467
C    -2.337000000    -1.082000000     1.002000000
H    -3.126000000    -1.065000000     1.750000000
C    -1.396000000    -0.029000000     0.839000000
H    -1.540000000     0.893000000     1.397000000
C    -0.270000000    -0.156000000     0.071000000
C     0.617000000     1.049000000    -0.086000000
H     1.648000000     0.720000000    -0.232000000
H     0.368000000     1.452000000    -1.070000000
H     0.562000000     1.756000000     0.745000000
C    -0.040000000    -1.359000000    -0.606000000
H     0.864000000    -1.488000000    -1.196000000
C    -0.947000000    -2.398000000    -0.507000000
H    -0.785000000    -3.275000000    -1.129000000
C    -2.123000000    -2.303000000     0.250000000
C    -3.131000000    -3.418000000     0.334000000
O    -2.944000000    -4.462000000    -0.314000000
O    -4.191000000    -3.179000000     0.852000000
