17
-96.81302
C    -2.234000000    -1.118000000     0.580000000
H    -3.317000000    -1.123000000     0.669000000
C    -1.475000000    -0.018000000     0.239000000
H    -1.998000000     0.933000000     0.180000000
C    -0.076000000    -0.117000000     0.002000000
C     0.720000000     1.086000000    -0.227000000
H     1.750000000     0.894000000     0.083000000
H     0.794000000     1.298000000    -1.296000000
H     0.326000000     1.916000000     0.364000000
C     0.525000000    -1.319000000     0.169000000
H     1.587000000    -1.517000000     0.050000000
C    -0.228000000    -2.473000000     0.450000000
H     0.239000000    -3.454000000     0.457000000
C    -1.613000000    -2.343000000     0.556000000
C    -2.351000000    -3.582000000     0.774000000
O    -1.987000000    -4.661000000     0.252000000
O    -3.340000000    -3.585000000     1.556000000
