17
-83.71716
C    -2.150000000    -1.318000000     1.327000000
H    -3.198000000    -1.314000000     1.615000000
C    -1.376000000    -0.153000000     1.066000000
H    -1.692000000     0.849000000     1.342000000
C    -0.225000000    -0.304000000     0.418000000
C     0.574000000     0.885000000     0.051000000
H     0.217000000     1.829000000     0.468000000
H     1.558000000     0.887000000     0.525000000
H     0.650000000     0.962000000    -1.036000000
C     0.169000000    -1.502000000    -0.153000000
H     1.148000000    -1.681000000    -0.588000000
C    -0.559000000    -2.642000000     0.130000000
H    -0.221000000    -3.632000000    -0.164000000
C    -1.719000000    -2.575000000     0.887000000
C    -2.587000000    -3.733000000     0.812000000
O    -2.303000000    -4.633000000     0.042000000
O    -3.629000000    -3.850000000     1.430000000
