17
-90.60633
C    -1.698000000    -1.740000000     1.402000000
H    -2.502000000    -1.847000000     2.126000000
C    -1.041000000    -0.548000000     1.207000000
H    -1.335000000     0.361000000     1.724000000
C     0.046000000    -0.413000000     0.342000000
C     0.805000000     0.862000000     0.197000000
H     0.542000000     1.427000000    -0.700000000
H     0.854000000     1.498000000     1.083000000
H     1.837000000     0.533000000     0.057000000
C     0.335000000    -1.542000000    -0.418000000
H     1.044000000    -1.461000000    -1.238000000
C    -0.285000000    -2.729000000    -0.288000000
H    -0.142000000    -3.475000000    -1.066000000
C    -1.221000000    -2.902000000     0.696000000
C    -1.877000000    -4.242000000     0.863000000
O    -1.555000000    -5.196000000     0.178000000
O    -2.926000000    -4.301000000     1.471000000
