17
-94.12553
C    -1.658000000    -1.981000000     1.416000000
H    -2.450000000    -2.262000000     2.105000000
C    -1.212000000    -0.592000000     1.262000000
H    -1.766000000     0.195000000     1.766000000
C    -0.070000000    -0.365000000     0.506000000
C     0.548000000     1.062000000     0.333000000
H     0.355000000     1.487000000    -0.654000000
H     0.151000000     1.728000000     1.101000000
H     1.620000000     0.991000000     0.530000000
C     0.560000000    -1.444000000    -0.232000000
H     1.425000000    -1.139000000    -0.816000000
C     0.002000000    -2.697000000    -0.123000000
H     0.341000000    -3.527000000    -0.738000000
C    -1.067000000    -3.018000000     0.721000000
C    -1.598000000    -4.429000000     0.755000000
O    -1.455000000    -5.180000000    -0.201000000
O    -2.441000000    -4.737000000     1.587000000
