17
-95.12528
C    -2.558000000    -0.484000000    -0.525000000
H    -3.611000000    -0.303000000    -0.326000000
C    -1.538000000     0.304000000     0.063000000
H    -1.741000000     1.144000000     0.722000000
C    -0.232000000     0.063000000    -0.305000000
C     0.875000000     1.028000000     0.133000000
H     1.092000000     1.078000000     1.202000000
H     1.833000000     0.686000000    -0.266000000
H     0.690000000     1.957000000    -0.411000000
C     0.072000000    -1.001000000    -1.197000000
H     1.132000000    -1.099000000    -1.419000000
C    -0.947000000    -1.860000000    -1.683000000
H    -0.725000000    -2.713000000    -2.319000000
C    -2.250000000    -1.574000000    -1.373000000
C    -3.388000000    -2.261000000    -2.054000000
O    -3.161000000    -3.006000000    -3.006000000
O    -4.546000000    -2.229000000    -1.659000000
