17
-89.07830
C     0.608000000    -2.186000000    -1.052000000
H     0.794000000    -2.781000000    -1.943000000
C     0.024000000    -0.920000000    -1.097000000
H    -0.272000000    -0.513000000    -2.061000000
C    -0.124000000    -0.159000000     0.077000000
C    -0.845000000     1.243000000    -0.050000000
H    -0.480000000     1.970000000     0.679000000
H    -0.735000000     1.665000000    -1.051000000
H    -1.889000000     1.022000000     0.181000000
C     0.284000000    -0.718000000     1.292000000
H     0.003000000    -0.123000000     2.157000000
C     0.804000000    -1.983000000     1.355000000
H     0.989000000    -2.385000000     2.348000000
C     0.991000000    -2.694000000     0.199000000
C     1.553000000    -4.093000000     0.222000000
O     1.821000000    -4.633000000     1.256000000
O     1.751000000    -4.629000000    -0.795000000
