17
-94.96137
C    -2.006000000    -0.656000000    -1.869000000
H    -2.826000000    -0.278000000    -2.474000000
C    -1.171000000     0.227000000    -1.174000000
H    -1.321000000     1.300000000    -1.264000000
C    -0.181000000    -0.229000000    -0.347000000
C     0.963000000     0.740000000     0.099000000
H     1.866000000     0.560000000    -0.487000000
H     0.590000000     1.763000000     0.020000000
H     1.155000000     0.597000000     1.165000000
C     0.004000000    -1.614000000    -0.140000000
H     0.837000000    -2.014000000     0.432000000
C    -0.918000000    -2.484000000    -0.694000000
H    -0.773000000    -3.543000000    -0.493000000
C    -1.891000000    -2.065000000    -1.602000000
C    -2.833000000    -3.031000000    -2.269000000
O    -2.804000000    -4.185000000    -1.922000000
O    -3.754000000    -2.637000000    -2.961000000
