17
-94.11925
C    -2.418000000     0.188000000    -0.705000000
H    -3.339000000     0.762000000    -0.640000000
C    -1.284000000     0.765000000    -0.143000000
H    -1.394000000     1.676000000     0.440000000
C    -0.052000000     0.123000000    -0.139000000
C     1.228000000     0.656000000     0.477000000
H     1.976000000     0.955000000    -0.260000000
H     0.923000000     1.521000000     1.070000000
H     1.773000000    -0.011000000     1.148000000
C     0.014000000    -1.166000000    -0.600000000
H     0.975000000    -1.671000000    -0.537000000
C    -1.054000000    -1.805000000    -1.220000000
H    -0.901000000    -2.777000000    -1.682000000
C    -2.309000000    -1.072000000    -1.281000000
C    -3.512000000    -1.681000000    -2.020000000
O    -3.523000000    -2.855000000    -2.309000000
O    -4.368000000    -0.932000000    -2.366000000
