17
-93.99366
C    -2.046000000     0.222000000    -1.242000000
H    -2.924000000     0.726000000    -1.638000000
C    -1.069000000     0.801000000    -0.398000000
H    -1.176000000     1.846000000    -0.117000000
C     0.020000000     0.017000000    -0.071000000
C     1.157000000     0.714000000     0.751000000
H     1.230000000     1.786000000     0.559000000
H     0.892000000     0.569000000     1.801000000
H     2.124000000     0.254000000     0.537000000
C     0.090000000    -1.283000000    -0.445000000
H     1.001000000    -1.800000000    -0.154000000
C    -0.883000000    -1.898000000    -1.108000000
H    -0.956000000    -2.979000000    -1.203000000
C    -1.947000000    -1.125000000    -1.579000000
C    -3.061000000    -1.815000000    -2.338000000
O    -2.977000000    -2.994000000    -2.705000000
O    -4.087000000    -1.213000000    -2.568000000
