17
-93.49270
C    -2.243000000    -0.515000000    -2.018000000
H    -3.044000000     0.041000000    -2.499000000
C    -1.603000000     0.301000000    -1.062000000
H    -1.956000000     1.308000000    -0.855000000
C    -0.485000000    -0.119000000    -0.434000000
C     0.407000000     0.782000000     0.403000000
H     0.435000000     0.573000000     1.474000000
H     1.407000000     0.976000000     0.007000000
H    -0.122000000     1.729000000     0.280000000
C    -0.115000000    -1.512000000    -0.643000000
H     0.721000000    -1.884000000    -0.057000000
C    -0.764000000    -2.343000000    -1.583000000
H    -0.486000000    -3.386000000    -1.712000000
C    -1.886000000    -1.817000000    -2.261000000
C    -2.702000000    -2.697000000    -3.199000000
O    -2.487000000    -3.899000000    -3.076000000
O    -3.605000000    -2.263000000    -3.862000000
