17
-96.75916
C    -2.106000000    -0.113000000    -0.989000000
H    -3.050000000     0.376000000    -1.213000000
C    -1.105000000     0.662000000    -0.373000000
H    -1.324000000     1.720000000    -0.252000000
C     0.116000000     0.103000000    -0.130000000
C     1.303000000     0.897000000     0.326000000
H     1.947000000     1.238000000    -0.487000000
H     0.988000000     1.714000000     0.979000000
H     1.966000000     0.176000000     0.808000000
C     0.362000000    -1.246000000    -0.448000000
H     1.294000000    -1.784000000    -0.302000000
C    -0.665000000    -2.032000000    -0.937000000
H    -0.579000000    -3.100000000    -1.121000000
C    -1.929000000    -1.494000000    -1.235000000
C    -3.046000000    -2.303000000    -1.892000000
O    -3.139000000    -3.475000000    -1.640000000
O    -3.861000000    -1.726000000    -2.557000000
