17
-102.38224
C    -2.248000000     0.352000000    -1.398000000
H    -3.174000000     0.877000000    -1.620000000
C    -1.250000000     0.852000000    -0.606000000
H    -1.361000000     1.906000000    -0.362000000
C    -0.099000000     0.131000000    -0.278000000
C     0.966000000     0.771000000     0.602000000
H     1.365000000     1.682000000     0.151000000
H     0.660000000     1.013000000     1.622000000
H     1.818000000     0.106000000     0.763000000
C    -0.070000000    -1.215000000    -0.688000000
H     0.764000000    -1.860000000    -0.422000000
C    -1.063000000    -1.750000000    -1.460000000
H    -1.130000000    -2.812000000    -1.684000000
C    -2.221000000    -1.004000000    -1.775000000
C    -3.417000000    -1.657000000    -2.510000000
O    -3.489000000    -2.904000000    -2.407000000
O    -4.160000000    -0.942000000    -3.248000000
