17
-88.58267
C    -2.083000000     0.647000000    -1.468000000
H    -2.859000000     1.358000000    -1.735000000
C    -1.132000000     1.131000000    -0.571000000
H    -1.175000000     2.136000000    -0.159000000
C    -0.158000000     0.251000000    -0.141000000
C     0.840000000     0.867000000     0.782000000
H     0.322000000     1.666000000     1.316000000
H     1.075000000     0.162000000     1.582000000
H     1.809000000     1.269000000     0.477000000
C    -0.242000000    -1.094000000    -0.535000000
H     0.584000000    -1.624000000    -0.068000000
C    -1.263000000    -1.557000000    -1.372000000
H    -1.275000000    -2.583000000    -1.730000000
C    -2.245000000    -0.666000000    -1.859000000
C    -3.298000000    -1.078000000    -2.884000000
O    -3.254000000    -2.181000000    -3.422000000
O    -4.161000000    -0.333000000    -3.279000000
