17
-97.48954
C    -2.145000000     0.679000000    -1.136000000
H    -2.979000000     1.376000000    -1.153000000
C    -1.131000000     0.964000000    -0.241000000
H    -1.235000000     1.768000000     0.483000000
C    -0.009000000     0.078000000    -0.221000000
C     0.996000000     0.224000000     0.820000000
H     1.922000000    -0.293000000     0.561000000
H     1.313000000     1.251000000     1.008000000
H     0.558000000    -0.148000000     1.749000000
C     0.088000000    -1.020000000    -1.056000000
H     0.890000000    -1.753000000    -1.048000000
C    -0.902000000    -1.211000000    -2.002000000
H    -0.749000000    -2.027000000    -2.703000000
C    -2.051000000    -0.341000000    -2.068000000
C    -3.160000000    -0.501000000    -3.112000000
O    -3.328000000    -1.612000000    -3.662000000
O    -3.961000000     0.381000000    -3.216000000
