17
-97.10301
C    -2.136000000     0.520000000    -1.032000000
H    -3.097000000     1.026000000    -0.993000000
C    -1.068000000     0.975000000    -0.187000000
H    -1.304000000     1.890000000     0.348000000
C     0.105000000     0.232000000    -0.197000000
C     1.220000000     0.681000000     0.711000000
H     1.331000000     0.049000000     1.595000000
H     2.176000000     0.552000000     0.200000000
H     1.009000000     1.703000000     1.030000000
C     0.177000000    -0.936000000    -0.933000000
H     1.061000000    -1.568000000    -0.961000000
C    -0.815000000    -1.332000000    -1.881000000
H    -0.517000000    -2.182000000    -2.490000000
C    -1.944000000    -0.523000000    -1.970000000
C    -3.003000000    -0.808000000    -3.048000000
O    -2.839000000    -1.803000000    -3.701000000
O    -4.008000000    -0.110000000    -3.087000000
