17
-91.68440
C    -2.348000000     0.032000000    -0.935000000
H    -3.347000000     0.449000000    -0.833000000
C    -1.306000000     0.763000000    -0.393000000
H    -1.503000000     1.756000000     0.002000000
C    -0.050000000     0.176000000    -0.298000000
C     1.100000000     0.727000000     0.380000000
H     1.623000000     1.357000000    -0.342000000
H     0.859000000     1.396000000     1.209000000
H     1.748000000    -0.116000000     0.629000000
C     0.058000000    -1.127000000    -0.777000000
H     1.070000000    -1.523000000    -0.772000000
C    -0.989000000    -1.715000000    -1.525000000
H    -0.769000000    -2.642000000    -2.046000000
C    -2.252000000    -1.147000000    -1.596000000
C    -3.456000000    -1.702000000    -2.275000000
O    -3.533000000    -2.897000000    -2.381000000
O    -4.347000000    -0.939000000    -2.643000000
