17
-84.95752
C    -2.402000000    -0.033000000    -0.216000000
H    -3.376000000     0.450000000    -0.231000000
C    -1.341000000     0.750000000     0.072000000
H    -1.528000000     1.791000000     0.324000000
C    -0.008000000     0.180000000     0.041000000
C     1.128000000     1.042000000     0.480000000
H     1.583000000     0.612000000     1.375000000
H     1.943000000     1.177000000    -0.234000000
H     0.729000000     2.020000000     0.757000000
C     0.116000000    -1.105000000    -0.392000000
H     1.095000000    -1.576000000    -0.389000000
C    -0.993000000    -1.900000000    -0.601000000
H    -0.845000000    -2.959000000    -0.798000000
C    -2.279000000    -1.338000000    -0.485000000
C    -3.476000000    -2.190000000    -0.791000000
O    -3.218000000    -3.238000000    -1.249000000
O    -4.641000000    -1.857000000    -0.738000000
