17
-97.50682
C    -2.443000000    -0.357000000    -0.605000000
H    -3.459000000     0.029000000    -0.594000000
C    -1.438000000     0.477000000    -0.204000000
H    -1.626000000     1.529000000    -0.004000000
C    -0.117000000     0.003000000    -0.070000000
C     0.888000000     0.901000000     0.579000000
H     1.906000000     0.553000000     0.391000000
H     0.958000000     1.911000000     0.170000000
H     0.832000000     1.063000000     1.657000000
C     0.162000000    -1.331000000    -0.388000000
H     1.185000000    -1.657000000    -0.219000000
C    -0.849000000    -2.175000000    -0.951000000
H    -0.617000000    -3.162000000    -1.343000000
C    -2.206000000    -1.719000000    -0.971000000
C    -3.357000000    -2.654000000    -1.348000000
O    -3.105000000    -3.689000000    -2.003000000
O    -4.502000000    -2.230000000    -1.296000000
