17
-87.82195
C    -2.410000000    -0.185000000    -1.217000000
H    -3.356000000     0.279000000    -1.484000000
C    -1.444000000     0.671000000    -0.618000000
H    -1.719000000     1.708000000    -0.440000000
C    -0.249000000     0.235000000    -0.197000000
C     0.866000000     1.100000000     0.234000000
H     0.870000000     1.196000000     1.322000000
H     1.790000000     0.595000000    -0.054000000
H     0.702000000     2.059000000    -0.261000000
C     0.035000000    -1.127000000    -0.486000000
H     0.981000000    -1.523000000    -0.124000000
C    -0.894000000    -1.971000000    -1.170000000
H    -0.676000000    -3.020000000    -1.356000000
C    -2.184000000    -1.486000000    -1.570000000
C    -3.226000000    -2.360000000    -2.279000000
O    -2.863000000    -3.489000000    -2.579000000
O    -4.309000000    -2.004000000    -2.498000000
