17
-98.91711
C    -2.703000000     0.169000000    -0.520000000
H    -3.664000000     0.661000000    -0.396000000
C    -1.552000000     0.791000000    -0.062000000
H    -1.583000000     1.816000000     0.298000000
C    -0.343000000     0.111000000    -0.145000000
C     1.012000000     0.790000000     0.089000000
H     1.829000000     0.203000000    -0.336000000
H     1.068000000     1.798000000    -0.327000000
H     1.218000000     0.868000000     1.158000000
C    -0.337000000    -1.244000000    -0.474000000
H     0.595000000    -1.802000000    -0.517000000
C    -1.511000000    -1.851000000    -1.014000000
H    -1.537000000    -2.889000000    -1.336000000
C    -2.641000000    -1.086000000    -1.174000000
C    -3.811000000    -1.766000000    -1.874000000
O    -3.750000000    -2.779000000    -2.586000000
O    -4.916000000    -1.294000000    -1.546000000
