17
-93.67802
C    -2.357000000    -0.294000000    -0.310000000
H    -3.315000000     0.220000000    -0.325000000
C    -1.233000000     0.397000000     0.149000000
H    -1.233000000     1.410000000     0.543000000
C     0.024000000    -0.231000000     0.130000000
C     1.274000000     0.486000000     0.624000000
H     2.188000000     0.236000000     0.081000000
H     1.097000000     1.563000000     0.619000000
H     1.451000000     0.168000000     1.654000000
C     0.135000000    -1.511000000    -0.424000000
H     1.069000000    -2.049000000    -0.287000000
C    -1.002000000    -2.187000000    -0.932000000
H    -0.994000000    -3.177000000    -1.382000000
C    -2.229000000    -1.578000000    -0.877000000
C    -3.372000000    -2.315000000    -1.463000000
O    -3.357000000    -3.561000000    -1.585000000
O    -4.274000000    -1.751000000    -1.974000000
