17
-96.33561
C    -2.214000000     0.029000000    -0.943000000
H    -3.126000000     0.613000000    -1.028000000
C    -1.176000000     0.589000000    -0.152000000
H    -1.153000000     1.630000000     0.162000000
C     0.026000000    -0.097000000    -0.080000000
C     1.137000000     0.564000000     0.700000000
H     1.163000000     1.595000000     0.343000000
H     0.949000000     0.553000000     1.776000000
H     2.118000000     0.157000000     0.448000000
C     0.231000000    -1.251000000    -0.860000000
H     1.192000000    -1.759000000    -0.845000000
C    -0.800000000    -1.822000000    -1.663000000
H    -0.538000000    -2.743000000    -2.175000000
C    -2.079000000    -1.119000000    -1.712000000
C    -3.218000000    -1.601000000    -2.613000000
O    -3.002000000    -2.318000000    -3.609000000
O    -4.390000000    -1.197000000    -2.407000000
