17
-99.33840
C    -2.188000000    -0.424000000    -0.701000000
H    -3.262000000    -0.280000000    -0.617000000
C    -1.256000000     0.420000000    -0.141000000
H    -1.710000000     1.293000000     0.323000000
C     0.082000000     0.209000000    -0.116000000
C     1.024000000     1.170000000     0.617000000
H     1.981000000     1.263000000     0.100000000
H     0.690000000     2.207000000     0.687000000
H     1.271000000     0.836000000     1.627000000
C     0.552000000    -0.957000000    -0.782000000
H     1.583000000    -1.295000000    -0.727000000
C    -0.335000000    -1.711000000    -1.475000000
H     0.065000000    -2.564000000    -2.017000000
C    -1.702000000    -1.469000000    -1.461000000
C    -2.644000000    -2.216000000    -2.376000000
O    -2.232000000    -3.296000000    -2.803000000
O    -3.756000000    -1.739000000    -2.554000000
