17
-96.91371
C    -2.532000000    -1.474000000    -0.247000000
H    -3.580000000    -1.330000000     0.005000000
C    -1.753000000    -0.463000000     0.251000000
H    -2.291000000     0.365000000     0.706000000
C    -0.390000000    -0.431000000     0.116000000
C     0.462000000     0.715000000     0.602000000
H     1.026000000     1.086000000    -0.257000000
H    -0.124000000     1.505000000     1.074000000
H     1.148000000     0.424000000     1.400000000
C     0.186000000    -1.471000000    -0.577000000
H     1.254000000    -1.532000000    -0.771000000
C    -0.569000000    -2.587000000    -0.949000000
H    -0.063000000    -3.464000000    -1.343000000
C    -1.991000000    -2.594000000    -0.870000000
C    -2.909000000    -3.747000000    -1.279000000
O    -2.440000000    -4.690000000    -1.857000000
O    -4.137000000    -3.657000000    -1.113000000
