17
-97.40100
C    -2.475000000    -0.440000000    -0.778000000
H    -3.466000000    -0.001000000    -0.862000000
C    -1.506000000     0.144000000     0.020000000
H    -1.691000000     0.944000000     0.731000000
C    -0.180000000    -0.266000000     0.029000000
C     0.827000000     0.352000000     1.033000000
H     1.108000000     1.338000000     0.655000000
H     0.379000000     0.535000000     2.012000000
H     1.707000000    -0.294000000     1.047000000
C     0.157000000    -1.368000000    -0.778000000
H     1.134000000    -1.842000000    -0.728000000
C    -0.787000000    -1.911000000    -1.636000000
H    -0.595000000    -2.626000000    -2.431000000
C    -2.110000000    -1.458000000    -1.616000000
C    -3.170000000    -2.044000000    -2.468000000
O    -2.884000000    -2.342000000    -3.632000000
O    -4.301000000    -2.321000000    -2.033000000
