17
-97.74149
C    -2.868000000    -1.470000000    -0.563000000
H    -3.891000000    -1.225000000    -0.839000000
C    -2.073000000    -0.328000000    -0.217000000
H    -2.471000000     0.683000000    -0.230000000
C    -0.745000000    -0.558000000     0.024000000
C     0.138000000     0.651000000     0.369000000
H    -0.377000000     1.268000000     1.108000000
H     1.104000000     0.356000000     0.782000000
H     0.298000000     1.383000000    -0.426000000
C    -0.188000000    -1.841000000    -0.044000000
H     0.881000000    -2.008000000     0.055000000
C    -1.034000000    -2.904000000    -0.267000000
H    -0.706000000    -3.935000000    -0.377000000
C    -2.406000000    -2.766000000    -0.559000000
C    -3.271000000    -3.911000000    -0.928000000
O    -2.862000000    -5.052000000    -0.900000000
O    -4.410000000    -3.694000000    -1.340000000
