17
-88.43671
C    -2.820000000     0.074000000    -0.353000000
H    -3.754000000     0.624000000    -0.425000000
C    -1.664000000     0.788000000    -0.030000000
H    -1.684000000     1.867000000     0.098000000
C    -0.462000000     0.169000000     0.078000000
C     0.779000000     0.940000000     0.353000000
H     1.337000000     0.489000000     1.176000000
H     1.400000000     0.886000000    -0.544000000
H     0.478000000     1.961000000     0.594000000
C    -0.336000000    -1.228000000    -0.089000000
H     0.679000000    -1.617000000    -0.073000000
C    -1.476000000    -1.955000000    -0.361000000
H    -1.409000000    -3.037000000    -0.427000000
C    -2.716000000    -1.327000000    -0.487000000
C    -3.999000000    -2.132000000    -0.736000000
O    -3.926000000    -3.319000000    -0.889000000
O    -4.947000000    -1.574000000    -1.159000000
