17
-99.18073
C    -2.936000000    -0.466000000    -0.655000000
H    -3.907000000    -0.004000000    -0.819000000
C    -1.796000000     0.247000000    -0.317000000
H    -1.837000000     1.311000000    -0.096000000
C    -0.520000000    -0.374000000    -0.162000000
C     0.771000000     0.349000000     0.088000000
H     0.611000000     1.239000000     0.699000000
H     1.453000000    -0.316000000     0.623000000
H     1.214000000     0.708000000    -0.844000000
C    -0.425000000    -1.776000000    -0.286000000
H     0.571000000    -2.198000000    -0.189000000
C    -1.560000000    -2.542000000    -0.618000000
H    -1.506000000    -3.625000000    -0.692000000
C    -2.815000000    -1.898000000    -0.684000000
C    -3.993000000    -2.806000000    -1.034000000
O    -3.847000000    -3.978000000    -1.287000000
O    -5.152000000    -2.341000000    -0.927000000
