17
-85.51292
C    -3.040000000    -0.709000000    -0.149000000
H    -4.010000000    -0.221000000    -0.191000000
C    -1.927000000     0.088000000    -0.005000000
H    -1.929000000     1.175000000     0.009000000
C    -0.657000000    -0.472000000     0.054000000
C     0.580000000     0.365000000     0.048000000
H     0.722000000     0.687000000    -0.986000000
H     0.408000000     1.267000000     0.639000000
H     1.393000000    -0.261000000     0.422000000
C    -0.455000000    -1.855000000    -0.170000000
H     0.530000000    -2.313000000    -0.204000000
C    -1.648000000    -2.584000000    -0.399000000
H    -1.597000000    -3.659000000    -0.551000000
C    -2.928000000    -2.093000000    -0.298000000
C    -4.076000000    -2.981000000    -0.628000000
O    -3.974000000    -4.114000000    -0.927000000
O    -5.173000000    -2.490000000    -0.768000000
