17
-93.52437
C    -2.676000000    -0.150000000    -0.517000000
H    -3.525000000     0.521000000    -0.618000000
C    -1.469000000     0.532000000    -0.437000000
H    -1.418000000     1.615000000    -0.510000000
C    -0.285000000    -0.187000000    -0.103000000
C     0.876000000     0.684000000     0.270000000
H     1.366000000     0.333000000     1.181000000
H     1.727000000     0.836000000    -0.397000000
H     0.426000000     1.652000000     0.503000000
C    -0.353000000    -1.558000000     0.191000000
H     0.579000000    -2.059000000     0.440000000
C    -1.560000000    -2.271000000    -0.022000000
H    -1.582000000    -3.319000000     0.265000000
C    -2.751000000    -1.568000000    -0.339000000
C    -4.097000000    -2.290000000    -0.441000000
O    -4.172000000    -3.526000000    -0.347000000
O    -5.100000000    -1.693000000    -0.843000000
