17
-96.84736
C    -2.827000000     0.035000000    -1.079000000
H    -3.679000000     0.498000000    -1.571000000
C    -1.764000000     0.815000000    -0.499000000
H    -1.806000000     1.898000000    -0.428000000
C    -0.648000000     0.170000000    -0.014000000
C     0.459000000     0.985000000     0.545000000
H     1.256000000     0.387000000     0.992000000
H     1.099000000     1.347000000    -0.263000000
H     0.220000000     1.799000000     1.232000000
C    -0.494000000    -1.202000000    -0.074000000
H     0.431000000    -1.708000000     0.190000000
C    -1.530000000    -1.951000000    -0.670000000
H    -1.363000000    -3.013000000    -0.831000000
C    -2.718000000    -1.340000000    -1.060000000
C    -3.841000000    -2.128000000    -1.643000000
O    -4.149000000    -3.124000000    -0.928000000
O    -4.468000000    -1.882000000    -2.667000000
