17
-96.81748
C    -1.833000000    -0.984000000    -1.371000000
H    -2.743000000    -0.691000000    -1.889000000
C    -1.152000000    -0.035000000    -0.637000000
H    -1.552000000     0.969000000    -0.522000000
C     0.079000000    -0.281000000    -0.035000000
C     0.820000000     0.821000000     0.693000000
H     0.280000000     1.742000000     0.464000000
H     0.713000000     0.652000000     1.767000000
H     1.881000000     0.952000000     0.468000000
C     0.558000000    -1.535000000    -0.077000000
H     1.548000000    -1.689000000     0.344000000
C    -0.152000000    -2.581000000    -0.676000000
H     0.317000000    -3.558000000    -0.765000000
C    -1.350000000    -2.276000000    -1.347000000
C    -2.060000000    -3.407000000    -2.154000000
O    -1.666000000    -4.569000000    -1.944000000
O    -2.981000000    -3.097000000    -2.810000000
