17
-95.58475
C    -1.492000000    -0.851000000    -2.323000000
H    -2.365000000    -0.588000000    -2.915000000
C    -0.961000000     0.008000000    -1.395000000
H    -1.472000000     0.939000000    -1.163000000
C     0.217000000    -0.318000000    -0.670000000
C     0.799000000     0.678000000     0.313000000
H     0.334000000     0.562000000     1.294000000
H     1.875000000     0.505000000     0.390000000
H     0.613000000     1.712000000     0.014000000
C     0.889000000    -1.484000000    -1.104000000
H     1.893000000    -1.721000000    -0.762000000
C     0.417000000    -2.299000000    -2.112000000
H     0.978000000    -3.206000000    -2.321000000
C    -0.791000000    -1.999000000    -2.753000000
C    -1.492000000    -2.871000000    -3.696000000
O    -0.854000000    -3.727000000    -4.341000000
O    -2.642000000    -2.648000000    -3.911000000
