17
-95.61604
C    -0.479000000    -1.599000000    -3.076000000
H    -0.838000000    -1.513000000    -4.099000000
C    -0.321000000    -0.465000000    -2.233000000
H    -0.608000000     0.477000000    -2.693000000
C    -0.041000000    -0.579000000    -0.900000000
C     0.068000000     0.646000000    -0.018000000
H     0.814000000     1.220000000    -0.570000000
H    -0.873000000     1.198000000     0.037000000
H     0.527000000     0.261000000     0.895000000
C     0.187000000    -1.821000000    -0.401000000
H     0.401000000    -1.914000000     0.661000000
C     0.151000000    -3.003000000    -1.221000000
H     0.337000000    -4.011000000    -0.858000000
C    -0.274000000    -2.849000000    -2.537000000
C    -0.669000000    -4.068000000    -3.400000000
O    -0.377000000    -5.159000000    -2.879000000
O    -1.375000000    -3.971000000    -4.383000000
