17
-78.92512
C     1.838000000    -0.719000000    -1.542000000
H     2.106000000    -0.916000000    -2.577000000
C     0.567000000    -0.108000000    -1.287000000
H    -0.034000000     0.274000000    -2.108000000
C     0.231000000     0.106000000     0.023000000
C    -0.880000000     1.077000000     0.360000000
H    -1.807000000     0.736000000    -0.105000000
H    -1.041000000     1.005000000     1.438000000
H    -0.629000000     2.139000000     0.308000000
C     0.950000000    -0.562000000     1.042000000
H     0.587000000    -0.406000000     2.055000000
C     2.157000000    -1.372000000     0.798000000
H     2.774000000    -1.737000000     1.615000000
C     2.639000000    -1.317000000    -0.534000000
C     3.919000000    -2.004000000    -0.841000000
O     4.580000000    -2.646000000    -0.015000000
O     3.981000000    -2.398000000    -1.991000000
