17
-100.49341
C    -0.703000000    -0.803000000    -2.445000000
H    -0.879000000    -0.442000000    -3.455000000
C    -0.242000000     0.025000000    -1.419000000
H    -0.120000000     1.080000000    -1.651000000
C     0.170000000    -0.487000000    -0.154000000
C     0.807000000     0.474000000     0.863000000
H     0.497000000     0.335000000     1.900000000
H     1.889000000     0.328000000     0.835000000
H     0.476000000     1.510000000     0.768000000
C     0.168000000    -1.877000000     0.043000000
H     0.515000000    -2.325000000     0.971000000
C    -0.301000000    -2.700000000    -0.981000000
H    -0.335000000    -3.769000000    -0.785000000
C    -0.742000000    -2.201000000    -2.250000000
C    -1.297000000    -3.170000000    -3.217000000
O    -1.073000000    -4.387000000    -3.083000000
O    -2.108000000    -2.643000000    -4.008000000
