17
-90.10144
C    -0.604000000    -1.328000000    -2.071000000
H    -0.863000000    -1.215000000    -3.121000000
C    -0.168000000    -0.183000000    -1.413000000
H     0.005000000     0.718000000    -1.995000000
C     0.071000000    -0.240000000    -0.071000000
C     0.432000000     0.890000000     0.684000000
H     1.025000000     0.585000000     1.548000000
H     0.999000000     1.534000000     0.007000000
H    -0.461000000     1.484000000     0.889000000
C    -0.171000000    -1.428000000     0.626000000
H    -0.053000000    -1.435000000     1.707000000
C    -0.391000000    -2.594000000    -0.027000000
H    -0.462000000    -3.546000000     0.493000000
C    -0.613000000    -2.520000000    -1.398000000
C    -0.955000000    -3.780000000    -2.101000000
O    -0.605000000    -4.900000000    -1.646000000
O    -1.752000000    -3.742000000    -3.023000000
