17
-94.73703
C     1.855000000    -1.574000000    -1.572000000
H     2.258000000    -1.827000000    -2.549000000
C     0.694000000    -0.812000000    -1.421000000
H     0.130000000    -0.493000000    -2.294000000
C     0.205000000    -0.445000000    -0.096000000
C    -1.010000000     0.496000000    -0.009000000
H    -1.938000000    -0.077000000    -0.068000000
H    -1.054000000     0.946000000     0.985000000
H    -1.018000000     1.329000000    -0.716000000
C     0.826000000    -0.871000000     1.056000000
H     0.487000000    -0.664000000     2.067000000
C     1.914000000    -1.676000000     0.886000000
H     2.459000000    -2.001000000     1.768000000
C     2.462000000    -2.032000000    -0.388000000
C     3.599000000    -2.958000000    -0.362000000
O     4.038000000    -3.325000000     0.718000000
O     3.917000000    -3.617000000    -1.391000000
