17
-98.55331
C    -0.002000000    -1.863000000    -1.841000000
H     0.005000000    -2.016000000    -2.918000000
C     0.168000000    -0.592000000    -1.358000000
H     0.426000000     0.264000000    -1.977000000
C     0.103000000    -0.318000000    -0.001000000
C     0.491000000     0.979000000     0.595000000
H     0.945000000     0.891000000     1.584000000
H     1.256000000     1.452000000    -0.024000000
H    -0.353000000     1.662000000     0.717000000
C    -0.397000000    -1.346000000     0.848000000
H    -0.589000000    -1.137000000     1.897000000
C    -0.651000000    -2.632000000     0.335000000
H    -0.918000000    -3.419000000     1.035000000
C    -0.565000000    -2.875000000    -1.035000000
C    -1.002000000    -4.203000000    -1.547000000
O    -1.506000000    -5.061000000    -0.806000000
O    -0.916000000    -4.380000000    -2.742000000
