17
-91.51086
C    -0.457000000    -3.148000000    -0.467000000
H    -0.281000000    -3.911000000    -1.221000000
C     0.299000000    -1.954000000    -0.409000000
H     1.086000000    -1.815000000    -1.146000000
C    -0.074000000    -0.896000000     0.435000000
C     0.589000000     0.448000000     0.289000000
H     1.235000000     0.500000000    -0.590000000
H    -0.166000000     1.230000000     0.189000000
H     1.236000000     0.735000000     1.121000000
C    -1.088000000    -1.081000000     1.312000000
H    -1.390000000    -0.258000000     1.955000000
C    -1.858000000    -2.231000000     1.249000000
H    -2.725000000    -2.382000000     1.887000000
C    -1.593000000    -3.290000000     0.398000000
C    -2.621000000    -4.393000000     0.198000000
O    -3.751000000    -4.241000000     0.538000000
O    -2.378000000    -5.293000000    -0.576000000
