17
-94.07201
C    -0.353000000    -3.125000000    -0.809000000
H     0.109000000    -3.837000000    -1.488000000
C     0.353000000    -1.896000000    -0.790000000
H     1.282000000    -1.727000000    -1.328000000
C    -0.020000000    -0.908000000     0.141000000
C     0.790000000     0.373000000     0.267000000
H     1.571000000     0.151000000     0.998000000
H     1.089000000     0.736000000    -0.718000000
H     0.198000000     1.131000000     0.784000000
C    -1.105000000    -1.178000000     0.988000000
H    -1.475000000    -0.378000000     1.624000000
C    -1.836000000    -2.391000000     0.955000000
H    -2.750000000    -2.515000000     1.531000000
C    -1.424000000    -3.356000000     0.028000000
C    -2.189000000    -4.656000000    -0.011000000
O    -3.289000000    -4.720000000     0.484000000
O    -1.871000000    -5.504000000    -0.846000000
