17
-86.32686
C    -0.295000000    -2.821000000    -0.642000000
H     0.211000000    -3.467000000    -1.355000000
C     0.143000000    -1.481000000    -0.674000000
H     0.914000000    -1.146000000    -1.364000000
C    -0.383000000    -0.628000000     0.244000000
C     0.228000000     0.746000000     0.545000000
H     0.119000000     0.906000000     1.620000000
H     1.318000000     0.709000000     0.509000000
H    -0.141000000     1.602000000    -0.024000000
C    -1.452000000    -0.987000000     0.996000000
H    -2.006000000    -0.260000000     1.584000000
C    -1.952000000    -2.266000000     0.973000000
H    -2.856000000    -2.517000000     1.522000000
C    -1.445000000    -3.195000000     0.021000000
C    -2.106000000    -4.533000000    -0.373000000
O    -3.131000000    -4.769000000     0.173000000
O    -1.770000000    -5.167000000    -1.360000000
