17
-96.52684
C     0.107000000    -2.701000000    -1.501000000
H     0.712000000    -3.272000000    -2.201000000
C     0.466000000    -1.444000000    -1.064000000
H     1.346000000    -1.004000000    -1.527000000
C    -0.299000000    -0.694000000    -0.166000000
C     0.096000000     0.768000000     0.121000000
H    -0.772000000     1.346000000    -0.203000000
H     0.420000000     0.948000000     1.148000000
H     1.024000000     1.015000000    -0.397000000
C    -1.355000000    -1.310000000     0.502000000
H    -1.923000000    -0.760000000     1.249000000
C    -1.583000000    -2.702000000     0.142000000
H    -2.361000000    -3.201000000     0.714000000
C    -0.910000000    -3.402000000    -0.875000000
C    -1.349000000    -4.771000000    -1.293000000
O    -2.196000000    -5.335000000    -0.597000000
O    -0.943000000    -5.255000000    -2.324000000
