17
-97.88450
C    -0.046000000    -2.496000000    -1.412000000
H     0.145000000    -2.911000000    -2.399000000
C     0.454000000    -1.232000000    -1.136000000
H     1.048000000    -0.756000000    -1.912000000
C     0.074000000    -0.544000000     0.010000000
C     0.432000000     0.879000000     0.152000000
H     0.551000000     1.030000000     1.227000000
H     1.344000000     1.161000000    -0.378000000
H    -0.445000000     1.415000000    -0.216000000
C    -0.838000000    -1.172000000     0.835000000
H    -1.143000000    -0.685000000     1.757000000
C    -1.316000000    -2.493000000     0.576000000
H    -2.059000000    -2.884000000     1.266000000
C    -0.906000000    -3.171000000    -0.576000000
C    -1.449000000    -4.561000000    -0.895000000
O    -2.263000000    -5.018000000    -0.143000000
O    -1.140000000    -5.157000000    -1.944000000
