17
-97.70989
C    -0.463000000    -3.083000000    -1.060000000
H     0.257000000    -3.746000000    -1.532000000
C    -0.171000000    -1.719000000    -0.971000000
H     0.743000000    -1.253000000    -1.330000000
C    -1.108000000    -0.885000000    -0.369000000
C    -0.844000000     0.598000000    -0.444000000
H     0.001000000     0.793000000    -1.107000000
H    -1.755000000     1.137000000    -0.709000000
H    -0.577000000     0.941000000     0.558000000
C    -2.353000000    -1.357000000     0.120000000
H    -3.065000000    -0.641000000     0.525000000
C    -2.632000000    -2.710000000     0.046000000
H    -3.545000000    -3.085000000     0.501000000
C    -1.674000000    -3.603000000    -0.558000000
C    -1.930000000    -5.111000000    -0.534000000
O    -2.910000000    -5.539000000     0.088000000
O    -1.352000000    -5.792000000    -1.315000000
