17
-94.48013
C    -0.511000000    -2.109000000    -1.721000000
H    -0.437000000    -2.371000000    -2.773000000
C     0.201000000    -0.941000000    -1.356000000
H     0.474000000    -0.264000000    -2.161000000
C     0.314000000    -0.568000000    -0.051000000
C     0.983000000     0.684000000     0.330000000
H     1.662000000     0.893000000    -0.499000000
H     0.300000000     1.520000000     0.497000000
H     1.592000000     0.508000000     1.219000000
C    -0.359000000    -1.336000000     0.859000000
H    -0.373000000    -0.946000000     1.874000000
C    -1.110000000    -2.500000000     0.552000000
H    -1.648000000    -3.076000000     1.300000000
C    -1.139000000    -2.964000000    -0.774000000
C    -2.041000000    -4.074000000    -1.153000000
O    -2.618000000    -4.599000000    -0.220000000
O    -2.139000000    -4.347000000    -2.323000000
