17
-97.13747
C    -1.063000000    -1.369000000    -1.803000000
H    -1.082000000    -1.642000000    -2.855000000
C    -0.290000000    -0.255000000    -1.400000000
H     0.271000000     0.355000000    -2.103000000
C    -0.233000000    -0.001000000    -0.018000000
C     0.698000000     1.056000000     0.527000000
H     1.030000000     0.705000000     1.507000000
H     1.549000000     1.004000000    -0.156000000
H     0.293000000     2.069000000     0.540000000
C    -1.077000000    -0.682000000     0.832000000
H    -1.100000000    -0.458000000     1.896000000
C    -1.801000000    -1.765000000     0.419000000
H    -2.373000000    -2.279000000     1.187000000
C    -1.763000000    -2.177000000    -0.966000000
C    -2.434000000    -3.457000000    -1.447000000
O    -3.164000000    -4.107000000    -0.701000000
O    -2.323000000    -3.774000000    -2.614000000
