17
-98.86984
C    -1.737000000    -1.388000000    -2.861000000
H    -1.482000000    -1.741000000    -3.858000000
C    -0.742000000    -0.893000000    -2.033000000
H     0.287000000    -0.742000000    -2.351000000
C    -1.061000000    -0.613000000    -0.746000000
C    -0.012000000    -0.033000000     0.235000000
H     0.555000000     0.787000000    -0.212000000
H    -0.590000000     0.315000000     1.093000000
H     0.713000000    -0.798000000     0.523000000
C    -2.357000000    -0.732000000    -0.312000000
H    -2.591000000    -0.462000000     0.715000000
C    -3.389000000    -1.155000000    -1.167000000
H    -4.357000000    -1.426000000    -0.753000000
C    -3.056000000    -1.500000000    -2.443000000
C    -4.156000000    -1.805000000    -3.435000000
O    -5.309000000    -1.673000000    -3.061000000
O    -3.873000000    -2.136000000    -4.594000000
