17
-94.18765
C     0.629000000    -2.253000000    -1.499000000
H     0.312000000    -2.909000000    -2.307000000
C    -0.149000000    -1.126000000    -1.181000000
H    -0.934000000    -0.891000000    -1.896000000
C    -0.079000000    -0.435000000    -0.024000000
C    -0.983000000     0.751000000     0.315000000
H    -1.379000000     0.999000000    -0.672000000
H    -1.788000000     0.472000000     0.999000000
H    -0.273000000     1.476000000     0.718000000
C     0.896000000    -0.837000000     0.851000000
H     1.020000000    -0.227000000     1.742000000
C     1.694000000    -1.916000000     0.588000000
H     2.478000000    -2.109000000     1.315000000
C     1.590000000    -2.652000000    -0.578000000
C     2.422000000    -3.877000000    -0.781000000
O     3.272000000    -4.179000000     0.044000000
O     2.249000000    -4.522000000    -1.816000000
