17
-93.20549
C    -0.843000000    -0.933000000    -2.026000000
H    -0.633000000    -1.116000000    -3.077000000
C     0.081000000    -0.108000000    -1.308000000
H     0.950000000     0.364000000    -1.761000000
C    -0.263000000     0.151000000     0.017000000
C     0.486000000     1.163000000     0.868000000
H    -0.002000000     2.116000000     1.083000000
H     0.679000000     0.787000000     1.875000000
H     1.474000000     1.411000000     0.474000000
C    -1.352000000    -0.586000000     0.560000000
H    -1.656000000    -0.473000000     1.597000000
C    -2.173000000    -1.309000000    -0.225000000
H    -3.044000000    -1.776000000     0.228000000
C    -1.953000000    -1.492000000    -1.564000000
C    -2.944000000    -2.248000000    -2.400000000
O    -4.032000000    -2.620000000    -1.985000000
O    -2.576000000    -2.594000000    -3.544000000
