17
-88.26131
C    -0.748000000    -0.407000000    -2.830000000
H    -0.440000000    -0.513000000    -3.867000000
C     0.147000000     0.159000000    -1.862000000
H     1.109000000     0.411000000    -2.301000000
C    -0.228000000     0.183000000    -0.544000000
C     0.744000000     0.577000000     0.561000000
H     1.657000000     0.993000000     0.129000000
H     0.196000000     1.390000000     1.042000000
H     1.024000000    -0.297000000     1.153000000
C    -1.442000000    -0.351000000    -0.159000000
H    -1.637000000    -0.441000000     0.907000000
C    -2.311000000    -0.906000000    -1.144000000
H    -3.260000000    -1.260000000    -0.750000000
C    -2.029000000    -0.828000000    -2.476000000
C    -2.999000000    -1.480000000    -3.419000000
O    -4.144000000    -1.694000000    -3.091000000
O    -2.710000000    -1.722000000    -4.554000000
