17
-89.13219
C    -0.336000000    -0.726000000    -2.460000000
H    -0.256000000    -0.547000000    -3.529000000
C     0.340000000     0.158000000    -1.606000000
H     0.856000000     0.967000000    -2.117000000
C     0.113000000     0.091000000    -0.211000000
C     0.837000000     1.025000000     0.757000000
H     1.403000000     1.798000000     0.233000000
H     0.076000000     1.571000000     1.319000000
H     1.530000000     0.485000000     1.406000000
C    -0.796000000    -0.884000000     0.256000000
H    -1.116000000    -0.967000000     1.292000000
C    -1.223000000    -1.823000000    -0.551000000
H    -1.916000000    -2.522000000    -0.090000000
C    -1.091000000    -1.787000000    -1.941000000
C    -1.810000000    -2.754000000    -2.807000000
O    -2.566000000    -3.599000000    -2.340000000
O    -1.731000000    -2.758000000    -4.042000000
