201
-1222.18530
C    -3.570000000     4.144000000     0.925000000
H    -2.919000000     4.953000000     0.601000000
C    -3.173000000     3.181000000     1.905000000
C    -4.070000000     2.148000000     2.237000000
H    -3.664000000     1.309000000     2.797000000
C    -1.769000000     3.083000000     2.469000000
O    -0.962000000     4.266000000     2.180000000
H    -1.385000000     2.219000000     1.906000000
O    -1.754000000     2.660000000     3.843000000
C    -0.800000000     1.740000000     4.196000000
C    -1.173000000     0.350000000     4.398000000
H    -2.228000000     0.092000000     4.371000000
C    -0.216000000    -0.629000000     4.614000000
O    -0.522000000    -1.973000000     4.712000000
C     1.156000000    -0.293000000     4.732000000
C     2.153000000    -1.349000000     4.911000000
H     2.994000000    -0.901000000     5.445000000
C     2.600000000    -1.887000000     3.535000000
C     3.797000000    -1.444000000     2.888000000
H     4.337000000    -0.603000000     3.316000000
H     1.896000000    -2.107000000     5.655000000
C     1.482000000     1.076000000     4.707000000
H     2.531000000     1.294000000     4.887000000
C     0.555000000     2.063000000     4.403000000
C     1.081000000     3.475000000     4.198000000
H     2.040000000     3.593000000     4.707000000
H     0.292000000     4.156000000     4.524000000
C     1.384000000     3.796000000     2.717000000
C     2.644000000     3.741000000     2.310000000
H     3.422000000     3.381000000     2.979000000
C     0.329000000     4.157000000     1.816000000
C     0.673000000     4.552000000     0.527000000
H    -0.046000000     4.776000000    -0.257000000
C     1.980000000     4.452000000     0.051000000
O     2.088000000     4.452000000    -1.340000000
C     2.203000000     3.144000000    -2.002000000
C     1.373000000     3.106000000    -3.274000000
C     1.822000000     2.634000000    -4.526000000
H     2.898000000     2.522000000    -4.631000000
C    -0.018000000     3.366000000    -3.147000000
H    -0.334000000     3.751000000    -2.181000000
O     3.607000000     2.920000000    -2.246000000
H     1.820000000     2.390000000    -1.299000000
C     2.981000000     4.027000000     0.949000000
C     4.431000000     3.717000000     0.439000000
H     5.162000000     3.780000000     1.248000000
H     4.668000000     4.450000000    -0.335000000
C     4.546000000     2.227000000    -0.138000000
C     4.936000000     1.159000000     0.603000000
H     5.177000000     1.374000000     1.641000000
C     4.282000000     1.994000000    -1.491000000
C     4.422000000     0.765000000    -1.983000000
H     4.080000000     0.588000000    -3.000000000
C     4.626000000    -0.321000000    -1.172000000
O     4.477000000    -1.569000000    -1.764000000
C     3.320000000    -2.358000000    -1.331000000
C     2.536000000    -3.096000000    -2.477000000
C     2.584000000    -2.724000000    -3.807000000
H     3.337000000    -2.030000000    -4.171000000
C     1.506000000    -3.944000000    -2.138000000
H     1.321000000    -4.153000000    -1.088000000
O     3.731000000    -3.257000000    -0.278000000
H     2.564000000    -1.730000000    -0.837000000
C     5.101000000    -0.134000000     0.094000000
C     5.483000000    -1.366000000     0.997000000
H     6.134000000    -0.986000000     1.787000000
H     6.102000000    -2.128000000     0.518000000
C     4.185000000    -1.917000000     1.650000000
C     3.408000000    -2.900000000     1.047000000
C     2.277000000    -3.375000000     1.644000000
H     1.704000000    -4.145000000     1.132000000
C     1.857000000    -2.847000000     2.851000000
O     0.750000000    -3.474000000     3.405000000
C    -0.493000000    -2.764000000     3.456000000
H    -0.451000000    -2.122000000     2.564000000
C    -1.783000000    -3.566000000     3.099000000
C    -3.040000000    -3.086000000     3.483000000
H    -3.237000000    -2.236000000     4.131000000
C    -1.629000000    -4.793000000     2.387000000
H    -0.695000000    -5.077000000     1.910000000
C    -2.742000000    -5.450000000     2.052000000
O    -2.678000000    -6.632000000     1.334000000
C    -3.982000000    -4.983000000     2.450000000
H    -4.858000000    -5.563000000     2.172000000
C    -4.204000000    -3.766000000     3.183000000
O    -5.450000000    -3.300000000     3.558000000
C    -5.713000000    -1.986000000     3.842000000
C    -5.861000000    -1.006000000     2.857000000
H    -5.603000000    -1.279000000     1.837000000
C    -6.058000000    -1.627000000     5.140000000
H    -6.022000000    -2.382000000     5.921000000
C    -6.224000000    -0.263000000     5.473000000
H    -6.302000000     0.072000000     6.504000000
C    -6.279000000     0.668000000     4.448000000
H    -6.536000000     1.689000000     4.722000000
C    -6.137000000     0.304000000     3.134000000
O    -6.328000000     1.247000000     2.103000000
C    -5.368000000     2.126000000     1.743000000
C    -5.757000000     3.014000000     0.792000000
H    -6.727000000     2.839000000     0.335000000
C    -4.886000000     4.043000000     0.404000000
O    -5.234000000     4.971000000    -0.576000000
C    -4.292000000     5.183000000    -1.614000000
C    -3.701000000     4.102000000    -2.276000000
H    -3.844000000     3.105000000    -1.868000000
C    -3.998000000     6.504000000    -2.115000000
H    -4.402000000     7.370000000    -1.597000000
C    -3.075000000     6.667000000    -3.197000000
H    -2.960000000     7.675000000    -3.589000000
C    -2.466000000     5.570000000    -3.764000000
H    -1.733000000     5.734000000    -4.550000000
C    -2.810000000     4.268000000    -3.307000000
O    -2.285000000     3.239000000    -4.005000000
C    -0.930000000     3.144000000    -4.142000000
C    -0.466000000     2.749000000    -5.377000000
H    -1.121000000     2.601000000    -6.233000000
C     0.907000000     2.464000000    -5.550000000
O     1.337000000     1.972000000    -6.783000000
C     2.073000000     0.803000000    -6.874000000
C     1.627000000    -0.415000000    -6.356000000
H     0.741000000    -0.417000000    -5.726000000
C     3.074000000     0.757000000    -7.816000000
H     3.333000000     1.680000000    -8.330000000
C     3.745000000    -0.438000000    -8.127000000
H     4.475000000    -0.495000000    -8.931000000
C     3.363000000    -1.639000000    -7.565000000
H     3.858000000    -2.549000000    -7.893000000
C     2.295000000    -1.623000000    -6.636000000
O     1.791000000    -2.845000000    -6.105000000
C     1.706000000    -3.241000000    -4.789000000
C     0.800000000    -4.243000000    -4.374000000
H     0.024000000    -4.566000000    -5.064000000
C     0.664000000    -4.558000000    -3.081000000
O    -0.361000000    -5.353000000    -2.734000000
C    -0.474000000    -6.061000000    -1.521000000
C     0.628000000    -6.852000000    -1.117000000
H     1.549000000    -6.956000000    -1.684000000
C     0.552000000    -7.641000000     0.049000000
H     1.412000000    -8.225000000     0.368000000
C    -0.573000000    -7.533000000     0.884000000
H    -0.609000000    -7.975000000     1.876000000
C    -1.633000000    -6.718000000     0.449000000
C    -1.642000000    -6.106000000    -0.781000000
H    -2.491000000    -5.546000000    -1.165000000
O    -6.176000000    -6.243000000     0.204000000
H    -6.794000000    -6.567000000    -0.451000000
H    -5.613000000    -5.636000000    -0.277000000
O    -7.941000000    -8.208000000    -1.786000000
H    -8.852000000    -7.996000000    -1.583000000
H    -7.598000000    -7.417000000    -2.201000000
O    -7.518000000    -5.670000000    -2.620000000
H    -7.873000000    -5.272000000    -3.415000000
H    -6.830000000    -5.067000000    -2.337000000
O    -5.282000000    -8.305000000    -3.707000000
H    -5.146000000    -8.412000000    -2.766000000
H    -4.677000000    -7.608000000    -3.960000000
O    -7.625000000    -2.434000000    -3.461000000
H    -7.329000000    -2.866000000    -2.660000000
H    -8.565000000    -2.611000000    -3.495000000
O    -3.886000000     0.566000000    -2.706000000
H    -3.320000000     0.049000000    -2.133000000
H    -4.757000000     0.489000000    -2.317000000
O    -3.693000000    -6.285000000    -4.476000000
H    -3.186000000    -5.803000000    -5.130000000
H    -4.151000000    -5.607000000    -3.980000000
O    -6.377000000    -0.290000000    -1.849000000
H    -6.288000000    -0.936000000    -2.550000000
H    -6.668000000     0.506000000    -2.293000000
O    -2.522000000    -0.576000000    -5.536000000
H    -3.344000000    -1.060000000    -5.453000000
H    -2.411000000    -0.147000000    -4.688000000
O    -6.924000000    -4.980000000    -5.370000000
H    -6.250000000    -4.745000000    -4.732000000
H    -6.646000000    -5.830000000    -5.711000000
O    -1.423000000    -3.215000000    -6.994000000
H    -0.992000000    -2.838000000    -7.761000000
H    -1.767000000    -2.460000000    -6.516000000
O    -8.612000000    -3.949000000    -7.180000000
H    -7.892000000    -4.067000000    -6.562000000
H    -8.499000000    -3.059000000    -7.513000000
O    -3.934000000    -3.371000000    -7.997000000
H    -3.014000000    -3.355000000    -7.733000000
H    -4.405000000    -3.001000000    -7.251000000
O    -4.128000000    -8.394000000    -0.591000000
H    -4.638000000    -7.777000000    -0.066000000
H    -3.238000000    -8.322000000    -0.246000000
O    -4.963000000    -2.189000000    -5.502000000
H    -5.669000000    -1.594000000    -5.248000000
H    -4.975000000    -2.874000000    -4.833000000
O    -6.273000000    -7.209000000    -6.515000000
H    -6.235000000    -7.591000000    -5.638000000
H    -5.548000000    -7.621000000    -6.986000000
O    -5.149000000     1.483000000    -5.022000000
H    -5.792000000     0.780000000    -5.120000000
H    -4.727000000     1.307000000    -4.182000000
O    -7.074000000    -3.301000000     0.328000000
H    -6.780000000    -3.493000000    -0.562000000
H    -7.238000000    -4.161000000     0.717000000
O    -7.067000000    -0.238000000    -4.948000000
H    -7.238000000    -1.001000000    -4.396000000
H    -7.929000000     0.019000000    -5.275000000
