201
-1255.01684
C    -3.649000000     3.622000000     1.254000000
H    -2.922000000     4.326000000     0.857000000
C    -3.400000000     2.806000000     2.340000000
C    -4.367000000     1.895000000     2.791000000
H    -4.107000000     1.287000000     3.653000000
C    -1.958000000     2.767000000     2.840000000
O    -1.326000000     4.074000000     2.749000000
H    -1.429000000     2.008000000     2.246000000
O    -1.865000000     2.160000000     4.150000000
C    -0.852000000     1.316000000     4.364000000
C    -1.193000000    -0.010000000     4.408000000
H    -2.243000000    -0.285000000     4.351000000
C    -0.213000000    -0.956000000     4.562000000
O    -0.556000000    -2.276000000     4.419000000
C     1.118000000    -0.564000000     4.710000000
C     2.240000000    -1.620000000     4.748000000
H     3.072000000    -1.270000000     5.363000000
C     2.798000000    -2.007000000     3.350000000
C     3.905000000    -1.385000000     2.763000000
H     4.336000000    -0.533000000     3.282000000
H     1.898000000    -2.465000000     5.349000000
C     1.403000000     0.810000000     4.696000000
H     2.441000000     1.134000000     4.677000000
C     0.460000000     1.750000000     4.478000000
C     0.826000000     3.257000000     4.460000000
H     1.641000000     3.540000000     5.129000000
H     0.141000000     3.876000000     5.043000000
C     1.007000000     3.679000000     2.998000000
C     2.287000000     3.579000000     2.564000000
H     3.165000000     3.305000000     3.143000000
C    -0.059000000     4.098000000     2.228000000
C     0.186000000     4.307000000     0.857000000
H    -0.690000000     4.629000000     0.299000000
C     1.461000000     4.247000000     0.407000000
O     1.704000000     4.645000000    -0.899000000
C     1.957000000     3.439000000    -1.824000000
C     1.258000000     3.720000000    -3.173000000
C     1.803000000     3.273000000    -4.383000000
H     2.755000000     2.758000000    -4.487000000
C    -0.029000000     4.156000000    -3.099000000
H    -0.430000000     4.514000000    -2.153000000
O     3.384000000     3.348000000    -2.004000000
H     1.484000000     2.600000000    -1.292000000
C     2.552000000     3.863000000     1.235000000
C     4.012000000     3.856000000     0.680000000
H     4.663000000     3.940000000     1.552000000
H     4.203000000     4.705000000     0.020000000
C     4.380000000     2.545000000    -0.039000000
C     4.896000000     1.433000000     0.709000000
H     5.102000000     1.516000000     1.773000000
C     4.047000000     2.402000000    -1.377000000
C     4.094000000     1.155000000    -1.972000000
H     3.715000000     1.051000000    -2.985000000
C     4.554000000     0.045000000    -1.272000000
O     4.377000000    -1.178000000    -1.923000000
C     3.363000000    -2.145000000    -1.371000000
C     2.656000000    -2.840000000    -2.544000000
C     2.349000000    -2.161000000    -3.730000000
H     2.594000000    -1.103000000    -3.780000000
C     2.153000000    -4.162000000    -2.438000000
H     2.154000000    -4.721000000    -1.505000000
O     3.981000000    -2.995000000    -0.408000000
H     2.553000000    -1.564000000    -0.906000000
C     4.927000000     0.155000000     0.093000000
C     5.445000000    -1.044000000     0.832000000
H     6.247000000    -0.806000000     1.535000000
H     6.065000000    -1.557000000     0.094000000
C     4.392000000    -1.846000000     1.559000000
C     3.683000000    -2.803000000     0.902000000
C     2.612000000    -3.446000000     1.377000000
H     2.058000000    -4.162000000     0.775000000
C     2.173000000    -3.043000000     2.639000000
O     0.942000000    -3.632000000     3.069000000
C    -0.278000000    -2.893000000     3.080000000
H    -0.227000000    -2.029000000     2.401000000
C    -1.494000000    -3.723000000     2.546000000
C    -2.725000000    -3.481000000     3.070000000
H    -2.929000000    -2.746000000     3.845000000
C    -1.350000000    -4.587000000     1.422000000
H    -0.405000000    -4.623000000     0.885000000
C    -2.495000000    -5.235000000     0.985000000
O    -2.498000000    -5.998000000    -0.189000000
C    -3.753000000    -5.036000000     1.620000000
H    -4.609000000    -5.539000000     1.178000000
C    -3.819000000    -4.221000000     2.678000000
O    -5.058000000    -4.016000000     3.271000000
C    -5.471000000    -2.741000000     3.598000000
C    -5.751000000    -1.653000000     2.743000000
H    -5.722000000    -1.857000000     1.675000000
C    -5.636000000    -2.532000000     4.978000000
H    -5.437000000    -3.394000000     5.610000000
C    -5.927000000    -1.254000000     5.491000000
H    -6.018000000    -1.096000000     6.563000000
C    -6.028000000    -0.146000000     4.642000000
H    -6.159000000     0.874000000     4.993000000
C    -6.000000000    -0.420000000     3.283000000
O    -6.266000000     0.574000000     2.366000000
C    -5.595000000     1.755000000     2.228000000
C    -5.817000000     2.515000000     1.046000000
H    -6.668000000     2.335000000     0.394000000
C    -4.931000000     3.517000000     0.649000000
O    -5.240000000     4.098000000    -0.513000000
C    -4.356000000     4.845000000    -1.293000000
C    -3.758000000     4.267000000    -2.399000000
H    -3.971000000     3.292000000    -2.830000000
C    -4.140000000     6.171000000    -0.915000000
H    -4.690000000     6.544000000    -0.055000000
C    -3.320000000     6.930000000    -1.733000000
H    -3.258000000     7.970000000    -1.421000000
C    -2.611000000     6.340000000    -2.772000000
H    -1.997000000     6.937000000    -3.441000000
C    -2.831000000     5.012000000    -3.108000000
O    -2.226000000     4.502000000    -4.159000000
C    -0.841000000     4.181000000    -4.209000000
C    -0.320000000     3.716000000    -5.442000000
H    -0.974000000     3.723000000    -6.310000000
C     1.035000000     3.418000000    -5.530000000
O     1.548000000     2.840000000    -6.714000000
C     1.996000000     1.545000000    -6.849000000
C     1.361000000     0.419000000    -6.219000000
H     0.461000000     0.571000000    -5.629000000
C     3.221000000     1.347000000    -7.482000000
H     3.845000000     2.175000000    -7.807000000
C     3.704000000     0.048000000    -7.711000000
H     4.606000000    -0.156000000    -8.283000000
C     3.046000000    -1.031000000    -7.084000000
H     3.452000000    -2.031000000    -7.210000000
C     1.852000000    -0.856000000    -6.350000000
O     1.162000000    -1.920000000    -5.844000000
C     1.660000000    -2.666000000    -4.771000000
C     1.174000000    -4.011000000    -4.614000000
H     0.540000000    -4.358000000    -5.427000000
C     1.460000000    -4.808000000    -3.481000000
O     0.940000000    -6.087000000    -3.347000000
C     0.394000000    -6.640000000    -2.248000000
C     0.888000000    -7.794000000    -1.659000000
H     1.836000000    -8.201000000    -1.999000000
C     0.213000000    -8.435000000    -0.636000000
H     0.721000000    -9.328000000    -0.281000000
C    -0.906000000    -7.795000000    -0.052000000
H    -1.594000000    -8.265000000     0.646000000
C    -1.346000000    -6.587000000    -0.638000000
C    -0.769000000    -6.068000000    -1.771000000
H    -1.252000000    -5.199000000    -2.209000000
O    -5.274000000    -5.782000000    -1.909000000
H    -6.088000000    -6.000000000    -1.456000000
H    -5.120000000    -4.861000000    -1.695000000
O    -8.435000000    -1.093000000     0.897000000
H    -8.341000000    -0.687000000     0.035000000
H    -8.005000000    -1.944000000     0.808000000
O    -7.682000000    -6.047000000    -0.409000000
H    -7.474000000    -6.648000000     0.306000000
H    -8.607000000    -5.834000000    -0.282000000
O    -6.202000000    -3.366000000    -3.457000000
H    -6.084000000    -4.208000000    -3.897000000
H    -5.414000000    -3.263000000    -2.923000000
O    -1.831000000    -7.878000000    -5.018000000
H    -2.338000000    -7.885000000    -4.206000000
H    -1.902000000    -6.978000000    -5.336000000
O    -5.891000000    -2.678000000    -6.729000000
H    -6.311000000    -3.499000000    -6.472000000
H    -6.034000000    -2.621000000    -7.674000000
O    -3.582000000     0.542000000    -2.555000000
H    -2.870000000    -0.052000000    -2.318000000
H    -4.129000000     0.585000000    -1.771000000
O    -7.210000000     0.267000000    -2.582000000
H    -7.279000000     1.153000000    -2.226000000
H    -6.385000000    -0.069000000    -2.233000000
O    -3.393000000    -5.501000000    -5.330000000
H    -3.044000000    -4.953000000    -6.034000000
H    -3.395000000    -4.930000000    -4.562000000
O    -5.513000000    -0.309000000    -0.750000000
H    -5.856000000    -1.203000000    -0.730000000
H    -5.473000000    -0.046000000     0.169000000
O    -2.311000000     0.428000000    -5.146000000
H    -3.006000000    -0.225000000    -5.225000000
H    -2.450000000     0.823000000    -4.285000000
O    -6.572000000    -5.917000000    -4.613000000
H    -6.248000000    -6.459000000    -5.332000000
H    -6.201000000    -6.316000000    -3.826000000
O    -2.209000000    -4.083000000    -7.092000000
H    -1.505000000    -3.794000000    -7.672000000
H    -2.411000000    -3.314000000    -6.559000000
O    -3.434000000    -7.573000000    -2.626000000
H    -4.208000000    -7.013000000    -2.581000000
H    -2.850000000    -7.231000000    -1.949000000
O    -3.511000000    -2.164000000    -5.384000000
H    -4.399000000    -2.247000000    -5.729000000
H    -3.558000000    -2.546000000    -4.507000000
O    -5.713000000     1.840000000    -4.251000000
H    -6.040000000     1.231000000    -4.912000000
H    -4.945000000     1.404000000    -3.882000000
O    -7.078000000    -3.370000000     0.236000000
H    -6.167000000    -3.496000000    -0.030000000
H    -7.574000000    -3.977000000    -0.315000000
O    -6.578000000    -0.384000000    -5.485000000
H    -6.350000000    -1.264000000    -5.783000000
H    -7.175000000    -0.527000000    -4.750000000
O    -8.487000000    -2.055000000    -2.245000000
H    -7.664000000    -2.491000000    -2.465000000
H    -8.429000000    -1.202000000    -2.675000000
