201
-1236.56719
C    -2.699000000     3.828000000     1.745000000
H    -1.931000000     4.502000000     1.376000000
C    -2.336000000     2.783000000     2.615000000
C    -3.293000000     1.832000000     3.042000000
H    -3.080000000     0.987000000     3.692000000
C    -0.899000000     2.701000000     2.968000000
O    -0.226000000     3.919000000     2.912000000
H    -0.540000000     1.893000000     2.314000000
O    -0.769000000     2.249000000     4.313000000
C     0.143000000     1.252000000     4.559000000
C    -0.375000000    -0.039000000     4.478000000
H    -1.411000000    -0.126000000     4.797000000
C     0.450000000    -1.148000000     4.287000000
O    -0.141000000    -2.349000000     4.339000000
C     1.842000000    -0.913000000     4.257000000
C     2.762000000    -2.027000000     4.283000000
H     3.723000000    -1.795000000     4.749000000
C     2.998000000    -2.598000000     2.842000000
C     4.065000000    -2.070000000     2.075000000
H     4.812000000    -1.494000000     2.615000000
H     2.412000000    -2.851000000     4.908000000
C     2.400000000     0.368000000     4.463000000
H     3.464000000     0.532000000     4.616000000
C     1.530000000     1.484000000     4.477000000
C     2.134000000     2.868000000     4.358000000
H     3.144000000     2.854000000     4.773000000
H     1.503000000     3.440000000     5.042000000
C     2.181000000     3.356000000     2.886000000
C     3.402000000     3.301000000     2.191000000
H     4.236000000     2.812000000     2.687000000
C     1.032000000     3.900000000     2.292000000
C     1.091000000     4.413000000     0.981000000
H     0.205000000     4.820000000     0.500000000
C     2.237000000     4.110000000     0.259000000
O     2.353000000     4.440000000    -1.050000000
C     2.120000000     3.364000000    -2.016000000
C     1.058000000     3.711000000    -3.065000000
C     0.911000000     2.961000000    -4.297000000
H     1.588000000     2.138000000    -4.509000000
C     0.200000000     4.739000000    -2.833000000
H     0.314000000     5.316000000    -1.919000000
O     3.407000000     2.982000000    -2.590000000
H     1.641000000     2.531000000    -1.481000000
C     3.398000000     3.595000000     0.808000000
C     4.668000000     3.306000000     0.068000000
H     5.569000000     3.167000000     0.669000000
H     4.817000000     4.045000000    -0.722000000
C     4.473000000     1.982000000    -0.737000000
C     5.008000000     0.773000000    -0.148000000
H     5.527000000     0.775000000     0.807000000
C     3.937000000     1.880000000    -1.988000000
C     3.686000000     0.653000000    -2.549000000
H     3.171000000     0.620000000    -3.505000000
C     4.005000000    -0.511000000    -1.947000000
O     3.659000000    -1.654000000    -2.641000000
C     2.658000000    -2.525000000    -2.024000000
C     1.671000000    -3.094000000    -3.043000000
C     1.489000000    -2.381000000    -4.272000000
H     2.145000000    -1.537000000    -4.465000000
C     0.847000000    -4.196000000    -2.757000000
H     0.889000000    -4.765000000    -1.832000000
O     3.254000000    -3.466000000    -1.123000000
H     2.057000000    -1.852000000    -1.394000000
C     4.834000000    -0.453000000    -0.811000000
C     5.273000000    -1.737000000    -0.122000000
H     6.186000000    -1.518000000     0.435000000
H     5.490000000    -2.556000000    -0.811000000
C     4.129000000    -2.359000000     0.746000000
C     3.266000000    -3.253000000     0.206000000
C     2.214000000    -3.772000000     0.908000000
H     1.445000000    -4.299000000     0.348000000
C     2.020000000    -3.448000000     2.253000000
O     0.912000000    -3.868000000     2.909000000
C    -0.286000000    -2.993000000     3.033000000
H    -0.171000000    -2.208000000     2.271000000
C    -1.642000000    -3.702000000     2.835000000
C    -2.760000000    -3.456000000     3.566000000
H    -2.623000000    -2.764000000     4.393000000
C    -1.722000000    -4.597000000     1.805000000
H    -0.879000000    -4.950000000     1.216000000
C    -2.907000000    -5.317000000     1.601000000
O    -2.959000000    -6.378000000     0.793000000
C    -4.057000000    -5.022000000     2.281000000
H    -4.959000000    -5.628000000     2.242000000
C    -3.979000000    -4.095000000     3.293000000
O    -5.085000000    -3.687000000     3.979000000
C    -5.382000000    -2.350000000     4.271000000
C    -5.263000000    -1.422000000     3.245000000
H    -5.113000000    -1.730000000     2.213000000
C    -5.865000000    -1.950000000     5.510000000
H    -5.969000000    -2.629000000     6.352000000
C    -6.245000000    -0.647000000     5.729000000
H    -6.531000000    -0.319000000     6.725000000
C    -6.118000000     0.294000000     4.716000000
H    -6.224000000     1.371000000     4.810000000
C    -5.455000000    -0.068000000     3.576000000
O    -5.510000000     0.876000000     2.581000000
C    -4.571000000     1.852000000     2.484000000
C    -4.853000000     2.792000000     1.495000000
H    -5.769000000     2.686000000     0.920000000
C    -3.983000000     3.823000000     1.216000000
O    -4.297000000     4.657000000     0.134000000
C    -3.490000000     5.594000000    -0.393000000
C    -2.969000000     5.397000000    -1.741000000
H    -3.231000000     4.460000000    -2.227000000
C    -3.247000000     6.778000000     0.322000000
H    -3.606000000     6.926000000     1.338000000
C    -2.509000000     7.748000000    -0.278000000
H    -2.332000000     8.718000000     0.179000000
C    -1.981000000     7.554000000    -1.593000000
H    -1.304000000     8.277000000    -2.040000000
C    -2.176000000     6.369000000    -2.279000000
O    -1.544000000     6.246000000    -3.522000000
C    -0.786000000     5.146000000    -3.775000000
C    -0.952000000     4.357000000    -4.916000000
H    -1.760000000     4.523000000    -5.624000000
C    -0.123000000     3.299000000    -5.170000000
O    -0.228000000     2.600000000    -6.364000000
C     0.455000000     1.485000000    -6.717000000
C     0.052000000     0.199000000    -6.313000000
H    -0.843000000    -0.097000000    -5.772000000
C     1.601000000     1.642000000    -7.543000000
H     1.886000000     2.638000000    -7.873000000
C     2.367000000     0.598000000    -7.928000000
H     3.189000000     0.716000000    -8.630000000
C     1.864000000    -0.691000000    -7.610000000
H     2.251000000    -1.582000000    -8.097000000
C     0.841000000    -0.888000000    -6.759000000
O     0.396000000    -2.229000000    -6.456000000
C     0.597000000    -2.883000000    -5.215000000
C    -0.193000000    -3.986000000    -4.976000000
H    -0.870000000    -4.214000000    -5.795000000
C    -0.111000000    -4.613000000    -3.678000000
O    -0.894000000    -5.740000000    -3.428000000
C    -1.038000000    -6.443000000    -2.279000000
C    -0.174000000    -7.538000000    -2.064000000
H     0.557000000    -7.790000000    -2.828000000
C    -0.334000000    -8.294000000    -0.897000000
H     0.269000000    -9.175000000    -0.694000000
C    -1.220000000    -7.885000000     0.076000000
H    -1.285000000    -8.397000000     1.033000000
C    -2.029000000    -6.744000000    -0.141000000
C    -1.869000000    -5.999000000    -1.305000000
H    -2.455000000    -5.096000000    -1.460000000
O    -4.816000000    -5.183000000    -1.392000000
H    -5.532000000    -5.058000000    -0.769000000
H    -4.453000000    -4.307000000    -1.519000000
O    -8.245000000    -4.764000000    -5.750000000
H    -7.319000000    -4.602000000    -5.570000000
H    -8.681000000    -4.622000000    -4.910000000
O    -2.638000000     0.998000000    -7.904000000
H    -1.950000000     1.201000000    -8.538000000
H    -2.403000000     0.134000000    -7.565000000
O    -6.858000000    -4.761000000     0.602000000
H    -7.319000000    -5.572000000     0.816000000
H    -7.497000000    -4.069000000     0.771000000
O    -5.453000000    -2.005000000    -5.176000000
H    -5.681000000    -2.897000000    -4.911000000
H    -4.863000000    -1.695000000    -4.488000000
O    -4.785000000    -7.788000000    -1.881000000
H    -4.833000000    -6.880000000    -1.582000000
H    -4.531000000    -8.283000000    -1.102000000
O    -5.666000000    -0.946000000    -8.562000000
H    -5.516000000    -1.735000000    -9.082000000
H    -5.473000000    -1.212000000    -7.663000000
O    -3.076000000     1.336000000    -1.227000000
H    -2.613000000     0.767000000    -0.613000000
H    -3.972000000     0.999000000    -1.237000000
O    -6.467000000     2.290000000    -2.161000000
H    -6.327000000     1.647000000    -1.466000000
H    -6.577000000     1.765000000    -2.954000000
O    -3.051000000    -4.526000000    -4.712000000
H    -2.482000000    -5.103000000    -4.203000000
H    -2.894000000    -3.654000000    -4.349000000
O    -6.469000000     0.609000000    -0.104000000
H    -6.150000000     0.612000000     0.798000000
H    -6.365000000    -0.298000000    -0.391000000
O    -3.668000000     0.976000000    -4.146000000
H    -3.407000000     0.055000000    -4.124000000
H    -3.260000000     1.359000000    -3.369000000
O    -3.243000000    -5.401000000    -7.603000000
H    -4.106000000    -5.676000000    -7.293000000
H    -2.739000000    -5.248000000    -6.804000000
O    -5.775000000    -4.741000000    -4.229000000
H    -4.836000000    -4.706000000    -4.411000000
H    -5.831000000    -5.039000000    -3.321000000
O    -2.784000000    -1.598000000    -6.457000000
H    -3.342000000    -2.332000000    -6.712000000
H    -2.719000000    -1.666000000    -5.504000000
O    -3.843000000    -7.913000000    -4.363000000
H    -4.385000000    -7.888000000    -3.574000000
H    -2.964000000    -7.690000000    -4.058000000
O    -3.864000000     2.758000000    -6.038000000
H    -3.861000000     2.314000000    -5.190000000
H    -3.585000000     2.086000000    -6.660000000
O    -6.081000000    -2.375000000    -0.488000000
H    -6.136000000    -3.235000000    -0.072000000
H    -5.660000000    -2.543000000    -1.330000000
O    -7.207000000     0.420000000    -4.354000000
H    -6.593000000    -0.314000000    -4.392000000
H    -8.043000000     0.021000000    -4.113000000
