201
-1239.41204
C    -2.253000000     4.560000000     2.286000000
H    -1.402000000     5.176000000     2.008000000
C    -1.999000000     3.331000000     2.959000000
C    -3.103000000     2.483000000     3.197000000
H    -2.961000000     1.578000000     3.782000000
C    -0.533000000     2.826000000     3.194000000
O     0.424000000     3.904000000     3.115000000
H    -0.262000000     2.047000000     2.466000000
O    -0.419000000     2.245000000     4.553000000
C     0.359000000     1.047000000     4.637000000
C    -0.284000000    -0.169000000     4.833000000
H    -1.358000000    -0.190000000     5.000000000
C     0.386000000    -1.377000000     4.666000000
O    -0.276000000    -2.591000000     4.466000000
C     1.762000000    -1.360000000     4.381000000
C     2.588000000    -2.601000000     4.169000000
H     3.566000000    -2.443000000     4.628000000
C     2.701000000    -2.977000000     2.718000000
C     3.860000000    -2.609000000     1.972000000
H     4.580000000    -1.980000000     2.488000000
H     2.121000000    -3.476000000     4.627000000
C     2.382000000    -0.076000000     4.282000000
H     3.453000000    -0.017000000     4.103000000
C     1.719000000     1.129000000     4.421000000
C     2.642000000     2.371000000     4.357000000
H     3.682000000     2.153000000     4.609000000
H     2.361000000     3.144000000     5.075000000
C     2.641000000     2.898000000     2.897000000
C     3.744000000     2.581000000     2.101000000
H     4.563000000     1.946000000     2.429000000
C     1.559000000     3.631000000     2.353000000
C     1.646000000     4.052000000     1.022000000
H     0.869000000     4.707000000     0.638000000
C     2.692000000     3.624000000     0.216000000
O     2.637000000     3.960000000    -1.118000000
C     2.367000000     2.949000000    -2.058000000
C     1.301000000     3.359000000    -3.009000000
C     1.381000000     2.967000000    -4.316000000
H     2.195000000     2.309000000    -4.608000000
C     0.312000000     4.261000000    -2.578000000
H     0.236000000     4.524000000    -1.526000000
O     3.607000000     2.424000000    -2.650000000
H     1.851000000     2.146000000    -1.510000000
C     3.774000000     2.958000000     0.768000000
C     4.953000000     2.517000000    -0.069000000
H     5.871000000     2.356000000     0.500000000
H     5.111000000     3.389000000    -0.707000000
C     4.689000000     1.254000000    -0.825000000
C     4.982000000     0.084000000    -0.269000000
H     5.622000000     0.029000000     0.608000000
C     4.116000000     1.278000000    -2.154000000
C     3.737000000     0.092000000    -2.807000000
H     3.207000000     0.118000000    -3.756000000
C     4.125000000    -1.114000000    -2.238000000
O     3.612000000    -2.300000000    -2.805000000
C     2.446000000    -2.877000000    -2.208000000
C     1.283000000    -3.151000000    -3.179000000
C     1.017000000    -2.316000000    -4.284000000
H     1.717000000    -1.534000000    -4.568000000
C     0.351000000    -4.147000000    -2.831000000
H     0.429000000    -4.740000000    -1.924000000
O     2.726000000    -3.905000000    -1.290000000
H     2.109000000    -1.979000000    -1.669000000
C     4.651000000    -1.157000000    -0.906000000
C     4.992000000    -2.448000000    -0.248000000
H     5.919000000    -2.277000000     0.304000000
H     5.297000000    -3.248000000    -0.925000000
C     3.880000000    -2.935000000     0.617000000
C     2.826000000    -3.628000000     0.034000000
C     1.752000000    -4.034000000     0.785000000
H     0.974000000    -4.644000000     0.331000000
C     1.640000000    -3.635000000     2.100000000
O     0.542000000    -4.048000000     2.787000000
C    -0.449000000    -3.035000000     3.074000000
H    -0.285000000    -2.257000000     2.313000000
C    -1.833000000    -3.557000000     2.772000000
C    -2.999000000    -2.835000000     2.907000000
H    -2.974000000    -1.772000000     3.130000000
C    -1.985000000    -4.884000000     2.260000000
H    -1.105000000    -5.468000000     2.001000000
C    -3.172000000    -5.392000000     1.913000000
O    -3.187000000    -6.595000000     1.298000000
C    -4.300000000    -4.665000000     2.161000000
H    -5.248000000    -5.021000000     1.765000000
C    -4.230000000    -3.405000000     2.717000000
O    -5.418000000    -2.642000000     2.834000000
C    -5.515000000    -1.510000000     3.556000000
C    -5.653000000    -0.251000000     2.966000000
H    -5.704000000    -0.181000000     1.882000000
C    -5.477000000    -1.654000000     4.940000000
H    -5.255000000    -2.658000000     5.293000000
C    -5.547000000    -0.524000000     5.718000000
H    -5.624000000    -0.584000000     6.800000000
C    -5.459000000     0.759000000     5.094000000
H    -5.461000000     1.620000000     5.758000000
C    -5.525000000     0.876000000     3.723000000
O    -5.527000000     2.088000000     3.106000000
C    -4.373000000     2.848000000     2.823000000
C    -4.600000000     4.030000000     2.157000000
H    -5.630000000     4.329000000     1.978000000
C    -3.543000000     4.914000000     1.882000000
O    -3.767000000     6.121000000     1.199000000
C    -2.883000000     6.567000000     0.225000000
C    -2.680000000     5.790000000    -0.885000000
H    -3.297000000     4.897000000    -0.932000000
C    -2.163000000     7.753000000     0.289000000
H    -2.103000000     8.370000000     1.183000000
C    -1.251000000     8.126000000    -0.679000000
H    -0.527000000     8.919000000    -0.513000000
C    -1.019000000     7.294000000    -1.786000000
H    -0.217000000     7.618000000    -2.443000000
C    -1.807000000     6.165000000    -1.911000000
O    -1.767000000     5.355000000    -3.011000000
C    -0.668000000     4.658000000    -3.495000000
C    -0.549000000     4.278000000    -4.814000000
H    -1.275000000     4.784000000    -5.444000000
C     0.487000000     3.464000000    -5.251000000
O     0.404000000     3.031000000    -6.573000000
C     0.731000000     1.716000000    -6.786000000
C    -0.018000000     0.735000000    -6.207000000
H    -0.948000000     0.962000000    -5.691000000
C     1.694000000     1.418000000    -7.783000000
H     2.056000000     2.233000000    -8.405000000
C     1.935000000     0.134000000    -8.183000000
H     2.471000000    -0.050000000    -9.110000000
C     1.195000000    -0.873000000    -7.563000000
H     1.319000000    -1.920000000    -7.830000000
C     0.259000000    -0.616000000    -6.541000000
O    -0.479000000    -1.627000000    -6.078000000
C    -0.085000000    -2.515000000    -5.085000000
C    -1.028000000    -3.429000000    -4.704000000
H    -1.979000000    -3.378000000    -5.228000000
C    -0.827000000    -4.277000000    -3.613000000
O    -1.886000000    -4.992000000    -3.161000000
C    -1.851000000    -5.890000000    -2.106000000
C    -1.223000000    -7.109000000    -2.347000000
H    -0.744000000    -7.281000000    -3.307000000
C    -1.478000000    -8.181000000    -1.484000000
H    -1.172000000    -9.129000000    -1.918000000
C    -2.057000000    -7.990000000    -0.299000000
H    -2.250000000    -8.809000000     0.388000000
C    -2.639000000    -6.773000000     0.007000000
C    -2.507000000    -5.732000000    -0.868000000
H    -2.993000000    -4.807000000    -0.569000000
O    -1.639000000     1.463000000    -3.179000000
H    -0.826000000     1.942000000    -3.021000000
H    -1.567000000     0.682000000    -2.629000000
O    -7.915000000     2.144000000     0.974000000
H    -8.215000000     3.000000000     0.671000000
H    -7.028000000     2.062000000     0.622000000
O    -5.859000000     1.350000000    -0.918000000
H    -5.759000000     0.407000000    -0.788000000
H    -5.283000000     1.552000000    -1.655000000
O    -7.491000000    -2.858000000    -1.949000000
H    -6.648000000    -2.681000000    -1.532000000
H    -8.014000000    -2.075000000    -1.772000000
O    -9.647000000     0.053000000    -0.799000000
H   -10.538000000    -0.298000000    -0.797000000
H    -9.734000000     0.922000000    -1.191000000
O    -4.909000000    -3.717000000    -3.706000000
H    -5.111000000    -2.874000000    -4.110000000
H    -4.671000000    -3.500000000    -2.805000000
O    -3.954000000    -5.846000000    -5.286000000
H    -4.087000000    -5.388000000    -4.456000000
H    -3.057000000    -5.629000000    -5.538000000
O    -4.263000000     1.862000000    -3.176000000
H    -4.489000000     2.220000000    -4.035000000
H    -3.313000000     1.747000000    -3.207000000
O    -8.730000000    -5.443000000    -1.798000000
H    -8.242000000    -4.826000000    -2.344000000
H    -9.465000000    -4.932000000    -1.458000000
O    -5.925000000    -5.214000000    -0.590000000
H    -5.527000000    -4.347000000    -0.663000000
H    -6.448000000    -5.306000000    -1.386000000
O    -7.925000000    -1.308000000     1.084000000
H    -8.083000000    -0.529000000     0.551000000
H    -7.078000000    -1.637000000     0.783000000
O    -9.654000000    -2.859000000     2.577000000
H    -9.083000000    -3.367000000     3.152000000
H    -9.094000000    -2.609000000     1.842000000
O    -5.805000000    -0.667000000    -3.233000000
H    -5.146000000     0.027000000    -3.240000000
H    -5.877000000    -0.920000000    -2.313000000
O    -9.450000000     0.114000000    -3.760000000
H    -9.259000000    -0.691000000    -3.277000000
H    -8.801000000     0.742000000    -3.443000000
O    -5.248000000    -7.874000000    -1.153000000
H    -4.847000000    -8.413000000    -0.471000000
H    -5.139000000    -6.975000000    -0.843000000
O    -6.111000000    -1.628000000    -5.874000000
H    -6.837000000    -2.246000000    -5.954000000
H    -6.280000000    -1.164000000    -5.055000000
O    -7.982000000    -6.181000000     1.305000000
H    -7.302000000    -5.812000000     0.742000000
H    -8.785000000    -6.113000000     0.789000000
O    -8.511000000    -3.173000000    -4.605000000
H    -8.004000000    -2.824000000    -3.872000000
H    -9.424000000    -3.062000000    -4.340000000
O    -8.049000000     2.061000000    -2.356000000
H    -7.863000000     2.763000000    -2.979000000
H    -7.279000000     2.032000000    -1.789000000
