201
-1257.11359
C    -2.518000000     3.704000000     1.542000000
H    -1.697000000     4.021000000     0.904000000
C    -2.219000000     3.009000000     2.739000000
C    -3.289000000     2.510000000     3.515000000
H    -3.161000000     1.837000000     4.359000000
C    -0.804000000     2.651000000     3.020000000
O     0.064000000     3.789000000     2.828000000
H    -0.492000000     1.859000000     2.323000000
O    -0.646000000     2.196000000     4.369000000
C     0.108000000     1.069000000     4.479000000
C    -0.590000000    -0.089000000     4.450000000
H    -1.667000000    -0.136000000     4.309000000
C     0.093000000    -1.278000000     4.465000000
O    -0.554000000    -2.489000000     4.302000000
C     1.484000000    -1.285000000     4.498000000
C     2.322000000    -2.591000000     4.345000000
H     3.274000000    -2.447000000     4.860000000
C     2.516000000    -2.990000000     2.877000000
C     3.629000000    -2.567000000     2.189000000
H     4.405000000    -1.955000000     2.642000000
H     1.813000000    -3.385000000     4.894000000
C     2.201000000    -0.061000000     4.456000000
H     3.286000000    -0.017000000     4.391000000
C     1.497000000     1.134000000     4.480000000
C     2.229000000     2.495000000     4.351000000
H     3.195000000     2.414000000     4.853000000
H     1.773000000     3.281000000     4.956000000
C     2.348000000     2.988000000     2.841000000
C     3.575000000     2.761000000     2.225000000
H     4.353000000     2.222000000     2.760000000
C     1.282000000     3.555000000     2.152000000
C     1.453000000     3.974000000     0.866000000
H     0.676000000     4.576000000     0.401000000
C     2.626000000     3.738000000     0.239000000
O     2.770000000     4.084000000    -1.064000000
C     2.382000000     3.050000000    -2.022000000
C     1.371000000     3.545000000    -3.050000000
C     1.243000000     2.845000000    -4.225000000
H     1.940000000     2.028000000    -4.391000000
C     0.563000000     4.644000000    -2.862000000
H     0.574000000     5.211000000    -1.935000000
O     3.573000000     2.468000000    -2.592000000
H     1.874000000     2.253000000    -1.458000000
C     3.675000000     3.129000000     0.926000000
C     4.910000000     2.642000000     0.168000000
H     5.819000000     2.571000000     0.768000000
H     5.284000000     3.405000000    -0.519000000
C     4.753000000     1.326000000    -0.704000000
C     4.991000000     0.146000000    -0.097000000
H     5.102000000     0.071000000     0.982000000
C     4.183000000     1.366000000    -2.007000000
C     4.025000000     0.147000000    -2.713000000
H     3.591000000     0.086000000    -3.708000000
C     4.252000000    -1.055000000    -2.028000000
O     3.799000000    -2.207000000    -2.691000000
C     2.594000000    -2.744000000    -2.151000000
C     1.592000000    -3.189000000    -3.184000000
C     1.644000000    -2.579000000    -4.479000000
H     2.371000000    -1.806000000    -4.713000000
C     0.548000000    -4.105000000    -2.928000000
H     0.496000000    -4.542000000    -1.935000000
O     2.953000000    -3.807000000    -1.228000000
H     2.159000000    -1.942000000    -1.537000000
C     4.792000000    -1.051000000    -0.720000000
C     5.024000000    -2.372000000     0.101000000
H     5.865000000    -2.341000000     0.796000000
H     5.352000000    -3.232000000    -0.487000000
C     3.772000000    -2.798000000     0.809000000
C     2.798000000    -3.559000000     0.112000000
C     1.669000000    -3.903000000     0.825000000
H     0.838000000    -4.349000000     0.284000000
C     1.509000000    -3.572000000     2.127000000
O     0.317000000    -3.990000000     2.718000000
C    -0.657000000    -2.976000000     2.936000000
H    -0.664000000    -2.155000000     2.204000000
C    -2.133000000    -3.466000000     2.707000000
C    -3.245000000    -2.660000000     3.036000000
H    -2.956000000    -1.757000000     3.567000000
C    -2.361000000    -4.545000000     1.875000000
H    -1.471000000    -5.088000000     1.569000000
C    -3.596000000    -4.831000000     1.382000000
O    -3.717000000    -5.864000000     0.484000000
C    -4.718000000    -4.167000000     1.870000000
H    -5.667000000    -4.349000000     1.372000000
C    -4.571000000    -3.058000000     2.690000000
O    -5.681000000    -2.374000000     3.097000000
C    -5.643000000    -1.319000000     4.022000000
C    -5.690000000    -0.024000000     3.545000000
H    -5.927000000     0.185000000     2.505000000
C    -5.409000000    -1.562000000     5.369000000
H    -5.216000000    -2.579000000     5.700000000
C    -5.172000000    -0.544000000     6.219000000
H    -4.943000000    -0.773000000     7.257000000
C    -5.349000000     0.794000000     5.792000000
H    -5.013000000     1.636000000     6.392000000
C    -5.502000000     1.032000000     4.447000000
O    -5.635000000     2.315000000     3.993000000
C    -4.632000000     2.792000000     3.192000000
C    -4.869000000     3.518000000     2.048000000
H    -5.901000000     3.610000000     1.718000000
C    -3.842000000     4.040000000     1.230000000
O    -4.134000000     4.855000000     0.157000000
C    -3.154000000     5.633000000    -0.402000000
C    -2.646000000     5.296000000    -1.695000000
H    -2.978000000     4.449000000    -2.289000000
C    -2.724000000     6.811000000     0.247000000
H    -2.945000000     7.085000000     1.275000000
C    -1.877000000     7.736000000    -0.347000000
H    -1.560000000     8.652000000     0.146000000
C    -1.352000000     7.445000000    -1.619000000
H    -0.663000000     8.214000000    -1.959000000
C    -1.752000000     6.270000000    -2.316000000
O    -1.183000000     6.101000000    -3.506000000
C    -0.453000000     4.965000000    -3.804000000
C    -0.652000000     4.194000000    -4.926000000
H    -1.409000000     4.453000000    -5.662000000
C     0.201000000     3.127000000    -5.144000000
O    -0.014000000     2.451000000    -6.344000000
C     0.756000000     1.349000000    -6.762000000
C     0.222000000     0.101000000    -6.569000000
H    -0.829000000    -0.035000000    -6.328000000
C     2.065000000     1.556000000    -7.150000000
H     2.262000000     2.619000000    -7.264000000
C     2.881000000     0.478000000    -7.441000000
H     3.856000000     0.595000000    -7.909000000
C     2.342000000    -0.784000000    -7.381000000
H     2.883000000    -1.687000000    -7.652000000
C     1.101000000    -0.976000000    -6.902000000
O     0.584000000    -2.267000000    -6.647000000
C     0.704000000    -2.930000000    -5.417000000
C    -0.298000000    -3.840000000    -5.186000000
H    -1.061000000    -4.019000000    -5.940000000
C    -0.330000000    -4.446000000    -4.007000000
O    -1.379000000    -5.351000000    -3.749000000
C    -1.540000000    -5.945000000    -2.539000000
C    -0.794000000    -7.123000000    -2.337000000
H    -0.119000000    -7.554000000    -3.072000000
C    -0.918000000    -7.717000000    -1.129000000
H    -0.246000000    -8.568000000    -1.059000000
C    -1.921000000    -7.293000000    -0.238000000
H    -1.958000000    -7.793000000     0.726000000
C    -2.765000000    -6.212000000    -0.474000000
C    -2.494000000    -5.445000000    -1.645000000
H    -3.091000000    -4.595000000    -1.965000000
O    -4.503000000     3.184000000    -4.638000000
H    -3.776000000     2.577000000    -4.498000000
H    -4.683000000     3.544000000    -3.769000000
O    -9.710000000     1.480000000     2.115000000
H   -10.404000000     1.255000000     1.495000000
H    -8.993000000     1.798000000     1.566000000
O    -5.313000000     3.308000000    -1.990000000
H    -5.996000000     3.893000000    -1.662000000
H    -5.161000000     2.692000000    -1.273000000
O    -9.652000000     1.029000000    -3.421000000
H    -9.555000000     1.916000000    -3.074000000
H    -8.754000000     0.728000000    -3.560000000
O    -9.092000000    -1.243000000     2.873000000
H    -9.817000000    -0.628000000     2.765000000
H    -8.663000000    -1.261000000     2.018000000
O    -4.289000000    -1.541000000    -3.024000000
H    -4.558000000    -0.977000000    -2.299000000
H    -3.426000000    -1.211000000    -3.276000000
O    -1.600000000    -1.046000000    -4.063000000
H    -1.740000000    -1.680000000    -4.766000000
H    -0.959000000    -1.465000000    -3.487000000
O    -5.423000000    -3.434000000    -1.302000000
H    -5.204000000    -3.386000000    -2.233000000
H    -5.317000000    -2.537000000    -0.985000000
O    -4.987000000    -3.979000000    -4.156000000
H    -5.139000000    -3.935000000    -5.100000000
H    -4.591000000    -3.135000000    -3.937000000
O    -6.720000000    -5.827000000    -0.964000000
H    -6.526000000    -6.390000000    -1.713000000
H    -6.141000000    -5.073000000    -1.075000000
O    -8.380000000    -1.683000000    -2.124000000
H    -8.543000000    -1.766000000    -1.185000000
H    -7.845000000    -2.446000000    -2.343000000
O    -7.233000000    -1.873000000     0.846000000
H    -6.902000000    -2.268000000     1.652000000
H    -6.461000000    -1.484000000     0.435000000
O    -7.874000000     2.303000000     0.072000000
H    -7.970000000     2.315000000    -0.880000000
H    -6.978000000     1.998000000     0.218000000
O    -7.085000000     0.803000000    -2.170000000
H    -7.710000000     0.145000000    -1.865000000
H    -6.345000000     0.728000000    -1.567000000
O    -2.899000000     1.393000000    -3.327000000
H    -2.588000000     0.622000000    -3.801000000
H    -2.355000000     1.427000000    -2.540000000
O    -4.458000000     0.162000000    -6.569000000
H    -4.143000000     1.018000000    -6.859000000
H    -5.033000000     0.357000000    -5.829000000
O    -6.303000000     0.817000000    -4.773000000
H    -5.828000000     1.640000000    -4.885000000
H    -6.742000000     0.908000000    -3.927000000
O    -8.598000000    -4.259000000     0.457000000
H    -8.083000000    -3.452000000     0.480000000
H    -8.288000000    -4.719000000    -0.323000000
O    -8.501000000     4.690000000     1.072000000
H    -9.074000000     4.530000000     1.822000000
H    -8.162000000     3.825000000     0.841000000
