201
-1250.93114
C    -2.004000000     4.068000000     2.818000000
H    -1.262000000     4.676000000     2.308000000
C    -1.668000000     2.878000000     3.520000000
C    -2.693000000     2.087000000     4.066000000
H    -2.516000000     1.110000000     4.510000000
C    -0.189000000     2.557000000     3.589000000
O     0.680000000     3.672000000     3.397000000
H     0.067000000     1.880000000     2.761000000
O     0.064000000     1.810000000     4.842000000
C     0.791000000     0.705000000     4.713000000
C     0.040000000    -0.481000000     4.584000000
H    -1.036000000    -0.488000000     4.741000000
C     0.656000000    -1.633000000     4.109000000
O    -0.244000000    -2.604000000     3.840000000
C     2.001000000    -1.647000000     3.868000000
C     2.712000000    -2.952000000     3.539000000
H     3.696000000    -2.967000000     4.013000000
C     2.703000000    -3.270000000     2.104000000
C     3.809000000    -3.004000000     1.362000000
H     4.659000000    -2.496000000     1.810000000
H     2.112000000    -3.699000000     4.061000000
C     2.758000000    -0.523000000     4.104000000
H     3.830000000    -0.560000000     3.926000000
C     2.142000000     0.712000000     4.386000000
C     2.942000000     2.017000000     4.436000000
H     3.951000000     1.887000000     4.832000000
H     2.532000000     2.640000000     5.234000000
C     2.882000000     2.758000000     3.075000000
C     3.937000000     2.370000000     2.209000000
H     4.688000000     1.634000000     2.484000000
C     1.821000000     3.517000000     2.649000000
C     1.827000000     3.922000000     1.311000000
H     0.968000000     4.524000000     1.024000000
C     2.830000000     3.568000000     0.424000000
O     2.682000000     3.924000000    -0.890000000
C     2.231000000     3.046000000    -1.875000000
C     1.216000000     3.737000000    -2.784000000
C     1.086000000     3.350000000    -4.117000000
H     1.732000000     2.571000000    -4.515000000
C     0.414000000     4.823000000    -2.344000000
H     0.470000000     5.178000000    -1.318000000
O     3.463000000     2.526000000    -2.532000000
H     1.818000000     2.123000000    -1.440000000
C     3.931000000     2.789000000     0.870000000
C     4.950000000     2.363000000    -0.112000000
H     5.854000000     2.173000000     0.469000000
H     5.149000000     3.165000000    -0.825000000
C     4.598000000     1.130000000    -0.973000000
C     4.922000000    -0.184000000    -0.560000000
H     5.375000000    -0.355000000     0.413000000
C     3.956000000     1.300000000    -2.192000000
C     3.509000000     0.198000000    -2.955000000
H     2.932000000     0.366000000    -3.861000000
C     3.904000000    -1.090000000    -2.607000000
O     3.176000000    -2.007000000    -3.220000000
C     2.009000000    -2.635000000    -2.593000000
C     0.915000000    -2.912000000    -3.629000000
C     0.588000000    -2.035000000    -4.661000000
H     1.023000000    -1.040000000    -4.714000000
C     0.228000000    -4.120000000    -3.625000000
H     0.435000000    -4.820000000    -2.820000000
O     2.368000000    -3.845000000    -1.909000000
H     1.571000000    -1.869000000    -1.937000000
C     4.472000000    -1.283000000    -1.361000000
C     4.900000000    -2.702000000    -0.876000000
H     5.852000000    -2.656000000    -0.342000000
H     5.077000000    -3.365000000    -1.725000000
C     3.759000000    -3.216000000    -0.006000000
C     2.544000000    -3.705000000    -0.592000000
C     1.470000000    -4.061000000     0.221000000
H     0.571000000    -4.512000000    -0.193000000
C     1.504000000    -3.804000000     1.546000000
O     0.352000000    -4.009000000     2.145000000
C    -0.431000000    -2.910000000     2.411000000
H    -0.180000000    -2.031000000     1.799000000
C    -1.923000000    -3.331000000     2.174000000
C    -2.942000000    -2.993000000     3.077000000
H    -2.657000000    -2.390000000     3.935000000
C    -2.349000000    -4.015000000     0.998000000
H    -1.666000000    -4.132000000     0.160000000
C    -3.623000000    -4.454000000     0.871000000
O    -3.978000000    -5.236000000    -0.217000000
C    -4.579000000    -4.098000000     1.809000000
H    -5.533000000    -4.610000000     1.718000000
C    -4.262000000    -3.368000000     2.924000000
O    -5.215000000    -3.110000000     3.899000000
C    -5.192000000    -1.913000000     4.674000000
C    -5.007000000    -0.703000000     4.112000000
H    -4.945000000    -0.598000000     3.032000000
C    -5.352000000    -2.058000000     6.032000000
H    -5.416000000    -3.042000000     6.490000000
C    -5.461000000    -0.927000000     6.851000000
H    -5.681000000    -1.020000000     7.911000000
C    -5.325000000     0.341000000     6.338000000
H    -5.516000000     1.219000000     6.950000000
C    -5.119000000     0.446000000     4.977000000
O    -5.129000000     1.709000000     4.435000000
C    -4.023000000     2.424000000     3.844000000
C    -4.365000000     3.506000000     3.000000000
H    -5.384000000     3.817000000     2.782000000
C    -3.354000000     4.340000000     2.498000000
O    -3.663000000     5.380000000     1.643000000
C    -2.726000000     6.087000000     0.852000000
C    -2.485000000     5.753000000    -0.524000000
H    -3.141000000     4.970000000    -0.896000000
C    -2.233000000     7.233000000     1.375000000
H    -2.400000000     7.434000000     2.430000000
C    -1.356000000     7.971000000     0.532000000
H    -0.818000000     8.792000000     0.999000000
C    -1.074000000     7.591000000    -0.758000000
H    -0.283000000     8.103000000    -1.300000000
C    -1.693000000     6.522000000    -1.369000000
O    -1.585000000     6.085000000    -2.656000000
C    -0.607000000     5.275000000    -3.170000000
C    -0.724000000     4.788000000    -4.507000000
H    -1.581000000     5.063000000    -5.116000000
C     0.094000000     3.827000000    -4.973000000
O     0.026000000     3.491000000    -6.317000000
C     0.413000000     2.228000000    -6.708000000
C    -0.279000000     1.092000000    -6.389000000
H    -1.229000000     1.145000000    -5.864000000
C     1.502000000     2.152000000    -7.600000000
H     2.053000000     3.015000000    -7.965000000
C     1.945000000     0.906000000    -8.066000000
H     2.809000000     0.844000000    -8.724000000
C     1.249000000    -0.259000000    -7.680000000
H     1.513000000    -1.253000000    -8.033000000
C     0.111000000    -0.165000000    -6.867000000
O    -0.589000000    -1.360000000    -6.655000000
C    -0.424000000    -2.324000000    -5.637000000
C    -1.154000000    -3.467000000    -5.579000000
H    -1.892000000    -3.669000000    -6.351000000
C    -0.758000000    -4.403000000    -4.600000000
O    -1.508000000    -5.582000000    -4.474000000
C    -1.838000000    -6.053000000    -3.224000000
C    -1.214000000    -7.261000000    -2.832000000
H    -0.498000000    -7.772000000    -3.471000000
C    -1.398000000    -7.700000000    -1.496000000
H    -0.927000000    -8.587000000    -1.081000000
C    -2.299000000    -6.990000000    -0.659000000
H    -2.374000000    -7.315000000     0.375000000
C    -3.024000000    -5.870000000    -1.125000000
C    -2.732000000    -5.350000000    -2.396000000
H    -3.139000000    -4.426000000    -2.799000000
O    -2.407000000     1.966000000    -2.383000000
H    -3.221000000     2.414000000    -2.152000000
H    -2.113000000     1.567000000    -1.564000000
O    -8.728000000     2.723000000     1.924000000
H    -8.568000000     3.605000000     2.259000000
H    -8.041000000     2.587000000     1.271000000
O    -6.720000000     2.236000000     0.205000000
H    -6.325000000     1.399000000     0.449000000
H    -6.186000000     2.549000000    -0.525000000
O    -7.997000000    -0.321000000    -1.461000000
H    -8.507000000     0.030000000    -0.731000000
H    -7.198000000    -0.656000000    -1.055000000
O    -9.775000000     0.289000000     0.938000000
H    -9.678000000     1.160000000     1.324000000
H   -10.713000000     0.108000000     0.989000000
O    -5.207000000    -3.134000000    -2.814000000
H    -5.998000000    -3.020000000    -3.342000000
H    -5.326000000    -2.540000000    -2.073000000
O    -8.383000000    -2.316000000     4.501000000
H    -7.679000000    -2.959000000     4.595000000
H    -8.142000000    -1.808000000     3.727000000
O    -5.668000000     3.278000000    -2.208000000
H    -5.486000000     3.993000000    -2.818000000
H    -5.870000000     2.529000000    -2.769000000
O    -9.090000000    -3.235000000    -2.459000000
H    -8.746000000    -2.354000000    -2.610000000
H    -9.770000000    -3.117000000    -1.795000000
O    -7.036000000    -4.298000000    -0.350000000
H    -6.148000000    -3.971000000    -0.494000000
H    -7.598000000    -3.677000000    -0.813000000
O    -7.678000000    -0.936000000     2.229000000
H    -8.445000000    -0.428000000     1.967000000
H    -7.065000000    -0.839000000     1.500000000
O    -9.385000000    -3.117000000     1.731000000
H    -8.878000000    -3.924000000     1.813000000
H    -8.729000000    -2.434000000     1.592000000
O    -5.709000000     0.538000000    -2.988000000
H    -6.161000000    -0.249000000    -3.291000000
H    -5.827000000     0.531000000    -2.038000000
O    -8.641000000     2.565000000    -3.782000000
H    -8.598000000     2.544000000    -2.826000000
H    -9.462000000     3.019000000    -3.975000000
O    -6.430000000    -6.619000000    -1.949000000
H    -5.543000000    -6.715000000    -1.603000000
H    -6.886000000    -6.091000000    -1.293000000
O    -3.806000000     1.323000000    -4.754000000
H    -4.449000000     0.857000000    -4.219000000
H    -2.992000000     1.267000000    -4.254000000
O    -8.171000000    -5.602000000     1.794000000
H    -7.800000000    -5.043000000     1.112000000
H    -7.811000000    -6.471000000     1.613000000
O    -8.435000000    -0.304000000    -4.108000000
H    -8.585000000    -0.280000000    -3.163000000
H    -8.516000000     0.608000000    -4.387000000
O    -8.809000000     3.584000000    -1.183000000
H    -9.026000000     4.384000000    -0.706000000
H    -8.042000000     3.235000000    -0.730000000
