201
-1242.42783
C    -0.898000000    -2.203000000    -3.869000000
H    -1.091000000    -1.174000000    -4.162000000
C    -1.726000000    -2.865000000    -2.979000000
C    -1.259000000    -4.052000000    -2.414000000
H    -1.752000000    -4.413000000    -1.515000000
C    -2.802000000    -2.001000000    -2.242000000
O    -3.429000000    -1.081000000    -3.108000000
H    -2.237000000    -1.316000000    -1.594000000
O    -3.666000000    -2.785000000    -1.455000000
C    -3.961000000    -2.322000000    -0.152000000
C    -3.206000000    -2.963000000     0.807000000
H    -2.666000000    -3.848000000     0.483000000
C    -3.197000000    -2.482000000     2.093000000
O    -2.494000000    -3.132000000     3.118000000
C    -4.059000000    -1.416000000     2.381000000
C    -4.022000000    -0.725000000     3.840000000
H    -4.947000000    -0.183000000     4.049000000
C    -2.812000000     0.133000000     4.054000000
C    -2.872000000     1.485000000     3.692000000
H    -3.835000000     1.891000000     3.395000000
H    -4.020000000    -1.465000000     4.643000000
C    -4.887000000    -0.840000000     1.388000000
H    -5.513000000    -0.010000000     1.702000000
C    -4.827000000    -1.269000000     0.028000000
C    -5.502000000    -0.521000000    -1.087000000
H    -6.367000000    -0.045000000    -0.619000000
H    -5.973000000    -1.127000000    -1.863000000
C    -4.609000000     0.544000000    -1.762000000
C    -4.578000000     1.882000000    -1.301000000
H    -5.236000000     2.147000000    -0.477000000
C    -3.654000000     0.184000000    -2.710000000
C    -2.850000000     1.144000000    -3.343000000
H    -2.077000000     0.814000000    -4.032000000
C    -2.962000000     2.523000000    -2.972000000
O    -2.007000000     3.333000000    -3.519000000
C    -0.811000000     3.481000000    -2.717000000
C     0.374000000     3.573000000    -3.697000000
C     1.639000000     3.902000000    -3.256000000
H     1.808000000     4.362000000    -2.285000000
C     0.294000000     2.998000000    -4.920000000
H    -0.689000000     2.742000000    -5.307000000
O    -0.877000000     4.660000000    -1.880000000
H    -0.610000000     2.614000000    -2.071000000
C    -3.737000000     2.862000000    -1.832000000
C    -3.657000000     4.226000000    -1.115000000
H    -4.631000000     4.470000000    -0.685000000
H    -3.593000000     5.018000000    -1.864000000
C    -2.505000000     4.306000000    -0.121000000
C    -2.746000000     4.063000000     1.259000000
H    -3.725000000     3.697000000     1.557000000
C    -1.219000000     4.604000000    -0.520000000
C    -0.152000000     4.645000000     0.394000000
H     0.873000000     4.864000000     0.103000000
C    -0.343000000     4.341000000     1.689000000
O     0.766000000     4.115000000     2.485000000
C     1.103000000     2.737000000     2.699000000
C     2.536000000     2.341000000     2.388000000
C     3.382000000     3.184000000     1.736000000
H     3.082000000     4.190000000     1.453000000
C     2.990000000     1.082000000     2.858000000
H     2.340000000     0.427000000     3.433000000
O     0.602000000     2.338000000     4.007000000
H     0.484000000     2.111000000     2.041000000
C    -1.653000000     4.119000000     2.107000000
C    -1.874000000     3.728000000     3.538000000
H    -2.819000000     4.136000000     3.903000000
H    -1.127000000     4.262000000     4.128000000
C    -1.769000000     2.257000000     3.750000000
C    -0.556000000     1.684000000     4.128000000
C    -0.485000000     0.381000000     4.486000000
H     0.468000000     0.027000000     4.869000000
C    -1.614000000    -0.401000000     4.497000000
O    -1.522000000    -1.749000000     4.754000000
C    -1.273000000    -2.524000000     3.547000000
H    -0.919000000    -1.911000000     2.705000000
C    -0.273000000    -3.649000000     3.793000000
C    -0.281000000    -4.794000000     2.948000000
H    -1.037000000    -4.866000000     2.170000000
C     0.699000000    -3.483000000     4.787000000
H     0.717000000    -2.653000000     5.489000000
C     1.749000000    -4.330000000     4.749000000
O     2.850000000    -4.073000000     5.530000000
C     1.694000000    -5.529000000     4.099000000
H     2.562000000    -6.169000000     4.237000000
C     0.649000000    -5.768000000     3.201000000
O     0.638000000    -6.911000000     2.411000000
C     0.031000000    -7.072000000     1.172000000
C     0.459000000    -6.342000000     0.062000000
H     1.340000000    -5.705000000     0.020000000
C    -1.166000000    -7.771000000     1.066000000
H    -1.660000000    -8.113000000     1.972000000
C    -1.824000000    -7.914000000    -0.155000000
H    -2.715000000    -8.535000000    -0.204000000
C    -1.344000000    -7.247000000    -1.288000000
H    -1.829000000    -7.280000000    -2.260000000
C    -0.226000000    -6.470000000    -1.145000000
O     0.308000000    -5.802000000    -2.264000000
C    -0.164000000    -4.714000000    -2.918000000
C     0.664000000    -4.083000000    -3.851000000
H     1.536000000    -4.635000000    -4.192000000
C     0.298000000    -2.834000000    -4.331000000
O     1.132000000    -2.205000000    -5.189000000
C     0.816000000    -1.309000000    -6.223000000
C     1.150000000     0.074000000    -6.020000000
H     1.806000000     0.320000000    -5.189000000
C     0.012000000    -1.715000000    -7.283000000
H    -0.148000000    -2.771000000    -7.483000000
C    -0.305000000    -0.773000000    -8.287000000
H    -0.877000000    -1.043000000    -9.171000000
C     0.009000000     0.564000000    -8.135000000
H    -0.145000000     1.334000000    -8.887000000
C     0.681000000     1.034000000    -6.980000000
O     1.226000000     2.353000000    -6.959000000
C     1.423000000     2.874000000    -5.763000000
C     2.643000000     3.305000000    -5.422000000
H     3.544000000     3.410000000    -6.021000000
C     2.751000000     3.818000000    -4.131000000
O     4.009000000     4.266000000    -3.816000000
C     4.392000000     4.872000000    -2.643000000
C     4.712000000     4.033000000    -1.649000000
H     4.598000000     2.968000000    -1.834000000
C     4.386000000     6.269000000    -2.466000000
H     4.098000000     6.902000000    -3.301000000
C     4.686000000     6.739000000    -1.181000000
H     4.534000000     7.782000000    -0.916000000
C     5.093000000     5.859000000    -0.169000000
H     5.291000000     6.205000000     0.843000000
C     5.079000000     4.485000000    -0.380000000
O     5.488000000     3.635000000     0.644000000
C     4.649000000     2.841000000     1.459000000
C     5.082000000     1.577000000     1.857000000
H     6.119000000     1.351000000     1.619000000
C     4.297000000     0.709000000     2.645000000
O     4.947000000    -0.389000000     3.219000000
C     4.467000000    -1.019000000     4.340000000
C     5.053000000    -0.566000000     5.500000000
H     5.502000000     0.423000000     5.534000000
C     4.826000000    -1.261000000     6.760000000
H     5.040000000    -0.880000000     7.755000000
C     4.095000000    -2.477000000     6.696000000
H     3.779000000    -3.018000000     7.585000000
C     3.523000000    -2.909000000     5.502000000
C     3.732000000    -2.169000000     4.297000000
H     3.336000000    -2.581000000     3.372000000
O     6.035000000    -0.509000000    -6.121000000
H     5.650000000    -0.761000000    -5.282000000
H     5.927000000    -1.282000000    -6.676000000
O     4.518000000    -3.971000000    -4.455000000
H     4.651000000    -3.057000000    -4.203000000
H     4.199000000    -4.394000000    -3.658000000
O     5.193000000    -4.932000000     3.270000000
H     5.823000000    -4.366000000     3.718000000
H     5.704000000    -5.697000000     3.007000000
O     4.010000000    -7.592000000     0.783000000
H     3.836000000    -6.671000000     0.589000000
H     3.490000000    -7.775000000     1.565000000
O     2.798000000    -6.959000000    -3.563000000
H     3.029000000    -6.490000000    -2.761000000
H     2.430000000    -7.788000000    -3.257000000
O     6.670000000    -2.511000000     0.283000000
H     7.268000000    -2.767000000    -0.419000000
H     5.818000000    -2.430000000    -0.146000000
O     3.493000000     0.752000000    -3.095000000
H     2.611000000     0.805000000    -2.727000000
H     3.986000000     0.231000000    -2.461000000
O     8.683000000    -5.347000000     0.358000000
H     9.258000000    -5.054000000     1.066000000
H     7.932000000    -5.737000000     0.805000000
O     5.480000000    -1.755000000    -3.513000000
H     6.421000000    -1.866000000    -3.646000000
H     5.402000000    -1.415000000    -2.622000000
O     7.733000000     2.020000000    -2.686000000
H     7.353000000     1.565000000    -1.935000000
H     7.025000000     2.054000000    -3.329000000
O     6.393000000    -5.885000000    -5.349000000
H     5.779000000    -5.154000000    -5.281000000
H     5.841000000    -6.666000000    -5.300000000
O     7.040000000    -3.654000000     4.407000000
H     7.252000000    -3.125000000     3.638000000
H     7.865000000    -3.720000000     4.888000000
O     5.610000000     2.017000000    -4.564000000
H     5.947000000     1.226000000    -4.985000000
H     4.896000000     1.707000000    -4.007000000
O     3.585000000    -4.950000000     0.954000000
H     4.155000000    -4.898000000     1.721000000
H     3.841000000    -4.203000000     0.414000000
O     4.312000000    -5.365000000    -1.745000000
H     3.941000000    -4.525000000    -1.474000000
H     5.162000000    -5.404000000    -1.306000000
O     8.365000000    -1.994000000    -3.696000000
H     8.050000000    -2.353000000    -2.866000000
H     8.930000000    -1.265000000    -3.442000000
O     8.698000000    -3.262000000    -1.259000000
H     9.615000000    -3.127000000    -1.495000000
H     8.701000000    -4.063000000    -0.735000000
O     8.147000000    -2.174000000     2.382000000
H     8.922000000    -1.747000000     2.015000000
H     7.592000000    -2.355000000     1.624000000
O     6.811000000     0.257000000    -0.750000000
H     7.274000000    -0.150000000    -0.018000000
H     5.956000000    -0.173000000    -0.761000000
