201
-1249.33486
C    -3.728000000     2.262000000     2.738000000
H    -3.494000000     3.295000000     2.493000000
C    -2.845000000     1.390000000     3.337000000
C    -3.344000000     0.111000000     3.609000000
H    -2.678000000    -0.632000000     4.039000000
C    -1.377000000     1.786000000     3.523000000
O    -1.293000000     3.220000000     3.635000000
H    -0.759000000     1.424000000     2.688000000
O    -0.935000000     1.197000000     4.720000000
C     0.307000000     0.540000000     4.562000000
C     0.333000000    -0.800000000     4.244000000
H    -0.582000000    -1.380000000     4.335000000
C     1.513000000    -1.417000000     3.985000000
O     1.528000000    -2.817000000     3.703000000
C     2.689000000    -0.683000000     3.999000000
C     4.001000000    -1.335000000     3.634000000
H     4.731000000    -0.698000000     4.139000000
C     4.208000000    -1.424000000     2.100000000
C     4.730000000    -0.421000000     1.341000000
H     5.096000000     0.474000000     1.837000000
H     4.081000000    -2.290000000     4.158000000
C     2.676000000     0.754000000     4.253000000
H     3.611000000     1.307000000     4.291000000
C     1.431000000     1.349000000     4.508000000
C     1.374000000     2.873000000     4.599000000
H     2.321000000     3.306000000     4.929000000
H     0.634000000     3.168000000     5.345000000
C     1.076000000     3.587000000     3.294000000
C     2.060000000     3.930000000     2.382000000
H     3.067000000     3.702000000     2.720000000
C    -0.276000000     3.801000000     2.910000000
C    -0.599000000     4.281000000     1.645000000
H    -1.632000000     4.269000000     1.307000000
C     0.408000000     4.621000000     0.765000000
O     0.005000000     5.098000000    -0.566000000
C     0.057000000     4.159000000    -1.604000000
C    -1.135000000     4.243000000    -2.579000000
C    -1.125000000     3.543000000    -3.818000000
H    -0.204000000     2.974000000    -3.917000000
C    -2.336000000     4.835000000    -2.154000000
H    -2.458000000     5.291000000    -1.174000000
O     1.334000000     4.335000000    -2.280000000
H    -0.049000000     3.123000000    -1.249000000
C     1.710000000     4.397000000     1.115000000
C     2.896000000     4.788000000     0.208000000
H     3.835000000     4.908000000     0.751000000
H     2.808000000     5.770000000    -0.263000000
C     3.123000000     3.652000000    -0.801000000
C     4.161000000     2.799000000    -0.460000000
H     4.650000000     2.923000000     0.503000000
C     2.404000000     3.549000000    -2.004000000
C     2.663000000     2.427000000    -2.781000000
H     2.030000000     2.357000000    -3.662000000
C     3.558000000     1.420000000    -2.368000000
O     3.553000000     0.235000000    -3.057000000
C     3.101000000    -0.938000000    -2.519000000
C     2.268000000    -1.695000000    -3.569000000
C     1.850000000    -1.095000000    -4.729000000
H     2.057000000    -0.048000000    -4.935000000
C     1.837000000    -3.006000000    -3.375000000
H     2.165000000    -3.585000000    -2.516000000
O     4.214000000    -1.751000000    -2.048000000
H     2.395000000    -0.728000000    -1.702000000
C     4.374000000     1.599000000    -1.207000000
C     5.429000000     0.583000000    -0.771000000
H     6.139000000     1.084000000    -0.109000000
H     5.943000000     0.189000000    -1.650000000
C     4.841000000    -0.569000000    -0.040000000
C     4.379000000    -1.760000000    -0.704000000
C     3.784000000    -2.741000000    -0.004000000
H     3.346000000    -3.602000000    -0.502000000
C     3.783000000    -2.572000000     1.379000000
O     2.927000000    -3.505000000     1.926000000
C     1.578000000    -3.122000000     2.311000000
H     1.235000000    -2.207000000     1.806000000
C     0.509000000    -4.270000000     2.024000000
C    -0.678000000    -4.334000000     2.795000000
H    -0.926000000    -3.658000000     3.609000000
C     0.799000000    -5.305000000     1.084000000
H     1.811000000    -5.403000000     0.700000000
C    -0.162000000    -6.367000000     0.852000000
O     0.192000000    -7.434000000     0.037000000
C    -1.199000000    -6.522000000     1.771000000
H    -1.825000000    -7.410000000     1.813000000
C    -1.487000000    -5.454000000     2.656000000
O    -2.494000000    -5.686000000     3.535000000
C    -3.299000000    -4.715000000     4.167000000
C    -3.782000000    -3.629000000     3.410000000
H    -3.503000000    -3.469000000     2.371000000
C    -3.644000000    -4.823000000     5.540000000
H    -3.280000000    -5.650000000     6.145000000
C    -4.313000000    -3.798000000     6.195000000
H    -4.444000000    -3.798000000     7.274000000
C    -4.649000000    -2.617000000     5.510000000
H    -5.122000000    -1.798000000     6.045000000
C    -4.477000000    -2.657000000     4.091000000
O    -5.131000000    -1.570000000     3.456000000
C    -4.607000000    -0.292000000     3.289000000
C    -5.440000000     0.618000000     2.610000000
H    -6.454000000     0.300000000     2.385000000
C    -5.053000000     1.888000000     2.393000000
O    -5.880000000     2.703000000     1.659000000
C    -5.561000000     3.799000000     0.863000000
C    -5.073000000     3.640000000    -0.436000000
H    -4.778000000     2.700000000    -0.895000000
C    -5.840000000     5.070000000     1.440000000
H    -6.227000000     5.168000000     2.451000000
C    -5.683000000     6.229000000     0.693000000
H    -5.921000000     7.210000000     1.098000000
C    -5.155000000     6.081000000    -0.576000000
H    -4.957000000     6.983000000    -1.151000000
C    -4.948000000     4.831000000    -1.140000000
O    -4.737000000     4.814000000    -2.477000000
C    -3.477000000     4.523000000    -2.933000000
C    -3.383000000     4.007000000    -4.275000000
H    -4.248000000     3.954000000    -4.931000000
C    -2.185000000     3.389000000    -4.625000000
O    -2.178000000     2.611000000    -5.738000000
C    -0.990000000     2.181000000    -6.276000000
C    -0.778000000     0.774000000    -6.318000000
H    -1.407000000     0.103000000    -5.738000000
C    -0.074000000     3.112000000    -6.796000000
H    -0.235000000     4.187000000    -6.800000000
C     1.140000000     2.646000000    -7.349000000
H     1.922000000     3.338000000    -7.648000000
C     1.338000000     1.183000000    -7.412000000
H     2.252000000     0.678000000    -7.715000000
C     0.398000000     0.316000000    -6.852000000
O     0.627000000    -1.003000000    -6.783000000
C     1.043000000    -1.711000000    -5.673000000
C     0.790000000    -3.090000000    -5.515000000
H     0.274000000    -3.625000000    -6.307000000
C     1.095000000    -3.737000000    -4.290000000
O     0.547000000    -5.001000000    -4.117000000
C     1.063000000    -5.914000000    -3.207000000
C     2.299000000    -6.594000000    -3.418000000
H     2.912000000    -6.359000000    -4.284000000
C     2.771000000    -7.616000000    -2.595000000
H     3.687000000    -8.178000000    -2.757000000
C     1.994000000    -7.858000000    -1.486000000
H     2.316000000    -8.653000000    -0.819000000
C     0.791000000    -7.221000000    -1.174000000
C     0.312000000    -6.234000000    -2.115000000
H    -0.648000000    -5.760000000    -1.925000000
O    -8.018000000    -2.337000000    -4.385000000
H    -8.140000000    -2.978000000    -5.086000000
H    -7.540000000    -2.814000000    -3.706000000
O   -10.278000000    -3.385000000    -0.709000000
H   -10.212000000    -3.665000000    -1.622000000
H    -9.739000000    -2.596000000    -0.661000000
O    -6.708000000    -3.563000000    -2.190000000
H    -5.967000000    -3.055000000    -1.862000000
H    -6.936000000    -4.149000000    -1.468000000
O    -7.770000000    -5.255000000     2.721000000
H    -7.326000000    -5.403000000     1.886000000
H    -7.099000000    -5.426000000     3.382000000
O    -2.274000000    -8.587000000    -0.884000000
H    -1.448000000    -8.378000000    -0.449000000
H    -2.569000000    -7.754000000    -1.252000000
O    -6.222000000    -5.057000000     0.572000000
H    -5.510000000    -4.542000000     0.193000000
H    -6.141000000    -5.917000000     0.161000000
O    -3.265000000    -6.026000000    -0.978000000
H    -3.368000000    -5.170000000    -0.561000000
H    -4.088000000    -6.480000000    -0.799000000
O    -8.741000000    -0.947000000    -0.927000000
H    -9.034000000    -0.387000000    -0.208000000
H    -8.009000000    -1.443000000    -0.561000000
O   -10.226000000    -4.591000000     1.615000000
H   -10.238000000    -4.001000000     0.861000000
H    -9.299000000    -4.676000000     1.838000000
O    -5.871000000    -7.313000000    -1.058000000
H    -6.574000000    -7.947000000    -1.199000000
H    -5.827000000    -6.819000000    -1.877000000
O    -7.221000000    -2.360000000     1.132000000
H    -6.972000000    -3.230000000     1.443000000
H    -6.461000000    -2.057000000     0.635000000
O    -8.656000000     1.137000000     1.613000000
H    -8.322000000     1.667000000     2.337000000
H    -9.096000000     1.766000000     1.040000000
O    -3.019000000    -4.003000000    -5.620000000
H    -2.866000000    -4.798000000    -5.111000000
H    -2.692000000    -3.296000000    -5.064000000
O    -9.851000000    -1.469000000     2.079000000
H    -9.407000000    -0.622000000     2.124000000
H    -9.198000000    -2.098000000     2.388000000
O    -6.444000000     0.357000000    -4.734000000
H    -6.882000000    -0.494000000    -4.699000000
H    -5.944000000     0.403000000    -3.919000000
O    -5.456000000    -6.056000000    -3.555000000
H    -5.855000000    -6.505000000    -4.300000000
H    -5.807000000    -5.166000000    -3.595000000
O    -5.544000000     0.474000000    -2.044000000
H    -6.204000000     0.900000000    -1.497000000
H    -5.596000000    -0.451000000    -1.804000000
O    -2.302000000    -1.956000000    -3.891000000
H    -2.989000000    -1.324000000    -4.103000000
H    -2.017000000    -1.713000000    -3.010000000
O    -2.939000000    -6.166000000    -4.085000000
H    -3.815000000    -5.977000000    -3.749000000
H    -2.357000000    -5.992000000    -3.345000000
