201
-1208.05408
C    -1.971000000    -2.096000000    -4.688000000
H    -2.561000000    -1.357000000    -5.224000000
C    -2.219000000    -2.358000000    -3.313000000
C    -1.351000000    -3.229000000    -2.587000000
H    -1.530000000    -3.272000000    -1.516000000
C    -3.090000000    -1.379000000    -2.549000000
O    -3.893000000    -0.408000000    -3.361000000
H    -2.527000000    -0.864000000    -1.757000000
O    -4.047000000    -2.194000000    -1.786000000
C    -4.282000000    -1.883000000    -0.449000000
C    -3.756000000    -2.692000000     0.485000000
H    -3.288000000    -3.598000000     0.111000000
C    -3.686000000    -2.245000000     1.758000000
O    -2.983000000    -3.046000000     2.629000000
C    -4.299000000    -1.071000000     2.128000000
C    -4.309000000    -0.739000000     3.671000000
H    -5.185000000    -0.117000000     3.868000000
C    -3.025000000     0.159000000     4.009000000
C    -3.048000000     1.546000000     3.863000000
H    -3.958000000     2.092000000     3.631000000
H    -4.299000000    -1.627000000     4.306000000
C    -4.800000000    -0.173000000     1.159000000
H    -5.213000000     0.805000000     1.392000000
C    -4.854000000    -0.605000000    -0.127000000
C    -5.569000000     0.291000000    -1.096000000
H    -6.371000000     0.867000000    -0.629000000
H    -6.043000000    -0.332000000    -1.858000000
C    -4.641000000     1.282000000    -1.811000000
C    -4.361000000     2.523000000    -1.248000000
H    -4.852000000     2.779000000    -0.312000000
C    -3.880000000     0.871000000    -2.939000000
C    -2.961000000     1.716000000    -3.496000000
H    -2.261000000     1.413000000    -4.269000000
C    -2.649000000     2.915000000    -2.843000000
O    -1.495000000     3.473000000    -3.348000000
C    -0.340000000     3.497000000    -2.449000000
C     0.921000000     3.177000000    -3.268000000
C     2.241000000     3.412000000    -2.789000000
H     2.330000000     3.751000000    -1.761000000
C     0.785000000     2.491000000    -4.448000000
H    -0.198000000     2.148000000    -4.760000000
O    -0.375000000     4.796000000    -1.809000000
H    -0.423000000     2.676000000    -1.723000000
C    -3.377000000     3.364000000    -1.760000000
C    -3.096000000     4.699000000    -1.073000000
H    -3.968000000     5.126000000    -0.575000000
H    -2.748000000     5.371000000    -1.861000000
C    -1.911000000     4.538000000    -0.084000000
C    -2.289000000     4.211000000     1.223000000
H    -3.339000000     4.118000000     1.488000000
C    -0.623000000     4.662000000    -0.437000000
C     0.411000000     4.382000000     0.437000000
H     1.436000000     4.247000000     0.102000000
C     0.091000000     4.037000000     1.748000000
O     1.154000000     3.728000000     2.568000000
C     1.313000000     2.380000000     3.034000000
C     2.759000000     1.979000000     3.105000000
C     3.670000000     2.550000000     2.199000000
H     3.261000000     3.198000000     1.428000000
C     3.133000000     1.140000000     4.121000000
H     2.426000000     0.689000000     4.813000000
O     0.602000000     2.184000000     4.303000000
H     0.879000000     1.665000000     2.319000000
C    -1.290000000     3.985000000     2.156000000
C    -1.687000000     3.649000000     3.548000000
H    -2.642000000     4.069000000     3.870000000
H    -1.005000000     4.107000000     4.268000000
C    -1.767000000     2.225000000     3.941000000
C    -0.602000000     1.581000000     4.313000000
C    -0.584000000     0.228000000     4.529000000
H     0.314000000    -0.351000000     4.725000000
C    -1.794000000    -0.519000000     4.324000000
O    -1.719000000    -1.906000000     4.323000000
C    -1.626000000    -2.570000000     2.994000000
H    -1.328000000    -1.768000000     2.303000000
C    -0.511000000    -3.577000000     3.030000000
C    -0.597000000    -4.791000000     2.214000000
H    -1.480000000    -5.011000000     1.619000000
C     0.663000000    -3.411000000     3.770000000
H     0.717000000    -2.562000000     4.446000000
C     1.714000000    -4.320000000     3.809000000
O     2.972000000    -4.114000000     4.405000000
C     1.542000000    -5.517000000     3.139000000
H     2.281000000    -6.288000000     3.339000000
C     0.460000000    -5.740000000     2.378000000
O     0.505000000    -6.813000000     1.641000000
C     0.019000000    -6.669000000     0.350000000
C     0.547000000    -5.733000000    -0.519000000
H     1.395000000    -5.107000000    -0.255000000
C    -1.041000000    -7.407000000    -0.097000000
H    -1.511000000    -8.079000000     0.617000000
C    -1.595000000    -7.258000000    -1.344000000
H    -2.437000000    -7.898000000    -1.594000000
C    -0.988000000    -6.411000000    -2.251000000
H    -1.282000000    -6.432000000    -3.297000000
C     0.026000000    -5.611000000    -1.826000000
O     0.617000000    -4.676000000    -2.601000000
C    -0.291000000    -3.814000000    -3.236000000
C    -0.130000000    -3.746000000    -4.630000000
H     0.639000000    -4.326000000    -5.134000000
C    -0.914000000    -2.768000000    -5.321000000
O    -0.760000000    -2.528000000    -6.662000000
C    -0.462000000    -1.274000000    -7.091000000
C     0.510000000    -0.476000000    -6.381000000
H     0.844000000    -0.861000000    -5.421000000
C    -1.043000000    -0.857000000    -8.279000000
H    -1.834000000    -1.394000000    -8.797000000
C    -0.714000000     0.408000000    -8.748000000
H    -1.293000000     0.810000000    -9.575000000
C     0.182000000     1.189000000    -8.048000000
H     0.580000000     2.141000000    -8.392000000
C     0.821000000     0.792000000    -6.892000000
O     1.848000000     1.519000000    -6.432000000
C     1.904000000     2.118000000    -5.213000000
C     3.184000000     2.326000000    -4.675000000
H     3.959000000     1.790000000    -5.216000000
C     3.381000000     2.930000000    -3.467000000
O     4.639000000     3.070000000    -2.949000000
C     4.999000000     3.650000000    -1.830000000
C     5.330000000     2.837000000    -0.760000000
H     5.318000000     1.751000000    -0.809000000
C     5.014000000     5.056000000    -1.751000000
H     4.495000000     5.662000000    -2.489000000
C     5.475000000     5.631000000    -0.638000000
H     5.494000000     6.700000000    -0.439000000
C     5.891000000     4.839000000     0.473000000
H     6.229000000     5.363000000     1.363000000
C     5.730000000     3.430000000     0.383000000
O     6.036000000     2.771000000     1.439000000
C     5.089000000     2.297000000     2.357000000
C     5.436000000     1.432000000     3.427000000
H     6.460000000     1.090000000     3.555000000
C     4.466000000     0.863000000     4.300000000
O     5.062000000     0.092000000     5.297000000
C     4.429000000    -1.042000000     5.772000000
C     4.198000000    -1.170000000     7.142000000
H     4.519000000    -0.468000000     7.907000000
C     3.430000000    -2.252000000     7.565000000
H     3.146000000    -2.392000000     8.605000000
C     2.937000000    -3.159000000     6.603000000
H     2.310000000    -3.953000000     7.000000000
C     3.284000000    -3.074000000     5.267000000
C     4.086000000    -1.988000000     4.863000000
H     4.343000000    -1.916000000     3.809000000
O     9.345000000     0.336000000     2.075000000
H     9.963000000     0.064000000     2.753000000
H     9.667000000     1.190000000     1.786000000
O     3.688000000    -4.255000000    -1.805000000
H     2.767000000    -4.437000000    -1.990000000
H     3.916000000    -4.863000000    -1.102000000
O     8.939000000    -3.183000000     5.129000000
H     8.534000000    -4.047000000     5.196000000
H     8.713000000    -2.879000000     4.250000000
O     4.251000000    -4.365000000    -4.704000000
H     3.637000000    -3.632000000    -4.760000000
H     4.581000000    -4.332000000    -3.806000000
O     5.835000000    -4.745000000     3.458000000
H     5.114000000    -4.671000000     4.083000000
H     5.512000000    -4.312000000     2.667000000
O     5.099000000    -7.859000000    -1.484000000
H     4.659000000    -7.239000000    -0.902000000
H     5.136000000    -8.673000000    -0.981000000
O     2.122000000    -1.605000000    -2.605000000
H     2.682000000    -2.361000000    -2.428000000
H     1.823000000    -1.321000000    -1.741000000
O     9.095000000    -4.186000000    -2.135000000
H     9.436000000    -3.415000000    -1.682000000
H     8.230000000    -4.326000000    -1.750000000
O     8.777000000     2.159000000    -1.208000000
H     8.534000000     1.277000000    -0.925000000
H     9.053000000     2.600000000    -0.404000000
O     7.654000000    -5.457000000     5.286000000
H     6.959000000    -5.198000000     4.681000000
H     7.723000000    -6.406000000     5.179000000
O     8.862000000    -4.334000000     1.407000000
H     8.179000000    -4.167000000     0.757000000
H     8.863000000    -3.554000000     1.960000000
O     3.949000000    -6.097000000     0.315000000
H     4.149000000    -6.690000000     1.039000000
H     4.115000000    -5.223000000     0.667000000
O     4.359000000    -8.195000000     2.247000000
H     4.189000000    -7.875000000     3.133000000
H     3.586000000    -8.717000000     2.029000000
O     7.083000000    -1.688000000    -2.232000000
H     6.808000000    -2.457000000    -1.732000000
H     7.247000000    -1.018000000    -1.569000000
O     6.901000000    -3.769000000    -0.452000000
H     6.263000000    -4.480000000    -0.401000000
H     6.583000000    -3.117000000     0.172000000
O     8.180000000    -7.641000000     0.255000000
H     8.198000000    -6.688000000     0.346000000
H     7.751000000    -7.950000000     1.053000000
O     9.827000000    -1.664000000    -1.193000000
H    10.752000000    -1.571000000    -0.962000000
H     9.366000000    -1.113000000    -0.560000000
O     8.009000000    -2.118000000     2.695000000
H     7.083000000    -2.196000000     2.463000000
H     8.211000000    -1.192000000     2.564000000
O     7.499000000    -0.310000000     0.322000000
H     8.060000000     0.073000000     0.996000000
H     6.784000000    -0.719000000     0.808000000
