201
-1240.60350
C    -1.577000000    -1.335000000    -4.726000000
H    -1.901000000    -0.326000000    -4.967000000
C    -2.184000000    -1.930000000    -3.606000000
C    -1.825000000    -3.216000000    -3.303000000
H    -2.332000000    -3.723000000    -2.486000000
C    -3.119000000    -1.169000000    -2.646000000
O    -3.720000000    -0.055000000    -3.295000000
H    -2.474000000    -0.704000000    -1.886000000
O    -4.140000000    -1.950000000    -2.046000000
C    -4.198000000    -1.781000000    -0.700000000
C    -3.693000000    -2.698000000     0.168000000
H    -3.296000000    -3.663000000    -0.136000000
C    -3.618000000    -2.557000000     1.563000000
O    -2.934000000    -3.477000000     2.319000000
C    -4.204000000    -1.320000000     2.058000000
C    -4.247000000    -1.039000000     3.522000000
H    -5.143000000    -0.504000000     3.845000000
C    -2.987000000    -0.377000000     3.835000000
C    -2.886000000     0.988000000     3.935000000
H    -3.806000000     1.559000000     3.839000000
H    -4.369000000    -1.960000000     4.094000000
C    -4.867000000    -0.468000000     1.183000000
H    -5.162000000     0.521000000     1.525000000
C    -4.811000000    -0.646000000    -0.170000000
C    -5.444000000     0.435000000    -1.027000000
H    -6.216000000     0.897000000    -0.409000000
H    -6.057000000    -0.017000000    -1.809000000
C    -4.451000000     1.493000000    -1.576000000
C    -4.186000000     2.606000000    -0.885000000
H    -4.586000000     2.727000000     0.118000000
C    -3.690000000     1.205000000    -2.720000000
C    -2.688000000     2.059000000    -3.123000000
H    -2.169000000     1.873000000    -4.060000000
C    -2.407000000     3.157000000    -2.326000000
O    -1.243000000     3.882000000    -2.622000000
C    -0.135000000     3.754000000    -1.785000000
C     1.079000000     3.576000000    -2.695000000
C     2.359000000     3.568000000    -2.144000000
H     2.405000000     3.772000000    -1.077000000
C     0.925000000     3.298000000    -4.055000000
H    -0.040000000     3.205000000    -4.547000000
O    -0.154000000     4.876000000    -0.901000000
H    -0.229000000     2.895000000    -1.105000000
C    -3.230000000     3.490000000    -1.247000000
C    -2.958000000     4.752000000    -0.361000000
H    -3.881000000     5.080000000     0.122000000
H    -2.615000000     5.613000000    -0.939000000
C    -1.914000000     4.537000000     0.715000000
C    -2.360000000     4.120000000     1.932000000
H    -3.412000000     3.940000000     2.135000000
C    -0.589000000     4.660000000     0.373000000
C     0.377000000     4.317000000     1.286000000
H     1.444000000     4.304000000     1.078000000
C    -0.027000000     3.869000000     2.503000000
O     1.034000000     3.560000000     3.352000000
C     1.297000000     2.175000000     3.404000000
C     2.782000000     1.892000000     3.489000000
C     3.708000000     2.680000000     2.765000000
H     3.518000000     3.620000000     2.253000000
C     3.252000000     0.793000000     4.172000000
H     2.559000000     0.203000000     4.765000000
O     0.567000000     1.706000000     4.600000000
H     0.917000000     1.725000000     2.475000000
C    -1.390000000     3.706000000     2.873000000
C    -1.836000000     3.247000000     4.208000000
H    -2.885000000     3.528000000     4.325000000
H    -1.228000000     3.779000000     4.943000000
C    -1.758000000     1.700000000     4.265000000
C    -0.605000000     1.012000000     4.391000000
C    -0.617000000    -0.360000000     4.364000000
H     0.338000000    -0.869000000     4.464000000
C    -1.803000000    -1.135000000     4.172000000
O    -1.653000000    -2.505000000     4.029000000
C    -1.604000000    -3.022000000     2.710000000
H    -1.399000000    -2.157000000     2.062000000
C    -0.539000000    -4.056000000     2.539000000
C    -0.763000000    -5.187000000     1.710000000
H    -1.764000000    -5.383000000     1.335000000
C     0.764000000    -3.863000000     3.064000000
H     0.917000000    -2.983000000     3.683000000
C     1.813000000    -4.727000000     2.717000000
O     3.097000000    -4.553000000     3.236000000
C     1.551000000    -5.808000000     1.846000000
H     2.319000000    -6.567000000     1.724000000
C     0.303000000    -6.070000000     1.430000000
O     0.035000000    -7.161000000     0.609000000
C    -0.728000000    -6.902000000    -0.535000000
C    -0.264000000    -6.119000000    -1.618000000
H     0.742000000    -5.708000000    -1.631000000
C    -1.978000000    -7.483000000    -0.611000000
H    -2.434000000    -8.027000000     0.212000000
C    -2.786000000    -7.174000000    -1.694000000
H    -3.824000000    -7.498000000    -1.683000000
C    -2.351000000    -6.446000000    -2.736000000
H    -3.019000000    -6.162000000    -3.545000000
C    -1.065000000    -5.970000000    -2.741000000
O    -0.610000000    -5.253000000    -3.741000000
C    -0.968000000    -3.983000000    -4.025000000
C    -0.430000000    -3.437000000    -5.200000000
H     0.224000000    -4.067000000    -5.797000000
C    -0.735000000    -2.119000000    -5.543000000
O    -0.171000000    -1.606000000    -6.688000000
C    -0.128000000    -0.296000000    -6.951000000
C     0.896000000     0.499000000    -6.393000000
H     1.557000000    -0.018000000    -5.702000000
C    -0.915000000     0.217000000    -8.034000000
H    -1.773000000    -0.332000000    -8.413000000
C    -0.885000000     1.580000000    -8.226000000
H    -1.508000000     1.927000000    -9.047000000
C     0.124000000     2.399000000    -7.622000000
H     0.214000000     3.454000000    -7.866000000
C     0.997000000     1.837000000    -6.676000000
O     1.983000000     2.664000000    -6.144000000
C     2.078000000     3.030000000    -4.823000000
C     3.357000000     3.117000000    -4.320000000
H     4.218000000     2.763000000    -4.882000000
C     3.527000000     3.350000000    -2.945000000
O     4.762000000     3.177000000    -2.380000000
C     5.173000000     3.871000000    -1.295000000
C     5.236000000     3.193000000    -0.053000000
H     4.910000000     2.164000000     0.071000000
C     5.802000000     5.126000000    -1.494000000
H     5.685000000     5.592000000    -2.469000000
C     6.371000000     5.772000000    -0.390000000
H     6.798000000     6.769000000    -0.467000000
C     6.349000000     5.154000000     0.832000000
H     6.842000000     5.693000000     1.636000000
C     5.848000000     3.861000000     1.031000000
O     5.965000000     3.230000000     2.260000000
C     5.054000000     2.422000000     2.877000000
C     5.512000000     1.409000000     3.660000000
H     6.560000000     1.121000000     3.642000000
C     4.600000000     0.541000000     4.308000000
O     5.123000000    -0.538000000     4.953000000
C     4.437000000    -1.753000000     5.216000000
C     4.320000000    -2.328000000     6.512000000
H     4.660000000    -1.819000000     7.411000000
C     3.692000000    -3.595000000     6.709000000
H     3.640000000    -4.071000000     7.685000000
C     3.344000000    -4.328000000     5.549000000
H     2.853000000    -5.294000000     5.638000000
C     3.504000000    -3.829000000     4.289000000
C     4.069000000    -2.554000000     4.124000000
H     4.264000000    -2.286000000     3.089000000
O     6.735000000    -2.016000000    -5.283000000
H     7.027000000    -1.905000000    -4.378000000
H     7.003000000    -2.906000000    -5.513000000
O     8.185000000     0.173000000     1.752000000
H     7.754000000    -0.656000000     1.958000000
H     8.692000000     0.381000000     2.537000000
O     3.702000000    -8.409000000    -2.614000000
H     3.064000000    -9.013000000    -2.235000000
H     3.934000000    -7.823000000    -1.894000000
O     8.178000000    -2.399000000     4.871000000
H     7.971000000    -3.333000000     4.837000000
H     7.668000000    -2.014000000     4.159000000
O     5.400000000    -6.580000000    -4.547000000
H     4.871000000    -6.457000000    -5.335000000
H     5.031000000    -7.359000000    -4.130000000
O     6.508000000    -4.887000000     0.806000000
H     5.768000000    -5.477000000     0.951000000
H     6.114000000    -4.093000000     0.446000000
O     7.449000000    -7.541000000    -0.241000000
H     7.366000000    -6.589000000    -0.183000000
H     7.403000000    -7.841000000     0.667000000
O     1.535000000    -1.599000000    -2.920000000
H     1.940000000    -1.311000000    -2.102000000
H     0.672000000    -1.920000000    -2.660000000
O     2.892000000    -3.121000000    -4.593000000
H     3.556000000    -3.644000000    -4.144000000
H     2.404000000    -2.696000000    -3.887000000
O     8.046000000     1.042000000    -2.322000000
H     7.491000000     0.508000000    -1.753000000
H     8.243000000     1.821000000    -1.803000000
O     4.250000000    -0.919000000    -5.588000000
H     3.588000000    -1.417000000    -5.109000000
H     5.048000000    -1.443000000    -5.510000000
O     9.189000000    -4.773000000     1.549000000
H     9.625000000    -5.112000000     0.767000000
H     8.260000000    -4.764000000     1.320000000
O     4.389000000    -6.468000000    -0.554000000
H     4.348000000    -6.525000000     0.400000000
H     4.038000000    -5.601000000    -0.758000000
O     4.842000000    -7.203000000     2.054000000
H     5.085000000    -6.729000000     2.849000000
H     4.411000000    -7.997000000     2.371000000
O     8.013000000    -5.349000000     4.794000000
H     7.461000000    -5.704000000     4.098000000
H     8.580000000    -6.078000000     5.046000000
O     7.613000000    -2.556000000    -2.590000000
H     7.032000000    -3.303000000    -2.729000000
H     7.040000000    -1.865000000    -2.258000000
O     4.931000000    -4.103000000    -3.315000000
H     5.060000000    -5.007000000    -3.601000000
H     4.751000000    -4.171000000    -2.378000000
O     7.108000000    -2.339000000     1.993000000
H     6.348000000    -2.477000000     1.427000000
H     7.685000000    -3.079000000     1.804000000
O     6.668000000    -0.664000000    -0.737000000
H     7.236000000    -0.574000000     0.028000000
H     5.997000000    -1.289000000    -0.466000000
