201
-1228.85117
C    -3.954000000     0.930000000     3.062000000
H    -3.934000000     2.011000000     3.180000000
C    -2.860000000     0.087000000     3.259000000
C    -2.966000000    -1.256000000     2.926000000
H    -2.112000000    -1.925000000     2.862000000
C    -1.487000000     0.585000000     3.589000000
O    -1.619000000     2.000000000     4.065000000
H    -0.830000000     0.583000000     2.708000000
O    -0.931000000    -0.244000000     4.585000000
C     0.407000000    -0.622000000     4.377000000
C     0.666000000    -1.935000000     3.876000000
H    -0.121000000    -2.672000000     3.741000000
C     1.963000000    -2.369000000     3.636000000
O     2.160000000    -3.629000000     3.055000000
C     3.018000000    -1.446000000     3.778000000
C     4.412000000    -1.772000000     3.290000000
H     5.143000000    -1.133000000     3.790000000
C     4.514000000    -1.523000000     1.749000000
C     4.857000000    -0.235000000     1.374000000
H     5.161000000     0.498000000     2.116000000
H     4.589000000    -2.807000000     3.588000000
C     2.765000000    -0.115000000     4.160000000
H     3.562000000     0.608000000     4.311000000
C     1.458000000     0.306000000     4.474000000
C     1.261000000     1.722000000     4.938000000
H     2.205000000     2.148000000     5.285000000
H     0.692000000     1.663000000     5.868000000
C     0.686000000     2.767000000     4.024000000
C     1.634000000     3.625000000     3.412000000
H     2.695000000     3.476000000     3.597000000
C    -0.661000000     2.954000000     3.652000000
C    -1.082000000     3.981000000     2.872000000
H    -2.125000000     4.096000000     2.588000000
C    -0.128000000     4.661000000     2.184000000
O    -0.495000000     5.390000000     1.101000000
C    -0.310000000     4.760000000    -0.218000000
C    -1.537000000     4.833000000    -1.135000000
C    -1.433000000     4.848000000    -2.548000000
H    -0.461000000     4.925000000    -3.029000000
C    -2.814000000     4.761000000    -0.629000000
H    -2.918000000     4.777000000     0.453000000
O     0.853000000     5.215000000    -0.868000000
H    -0.098000000     3.700000000    -0.018000000
C     1.257000000     4.525000000     2.453000000
C     2.408000000     5.132000000     1.610000000
H     3.292000000     5.232000000     2.243000000
H     2.114000000     6.099000000     1.197000000
C     2.772000000     4.242000000     0.392000000
C     3.767000000     3.279000000     0.492000000
H     4.186000000     3.097000000     1.478000000
C     2.047000000     4.416000000    -0.791000000
C     2.294000000     3.558000000    -1.816000000
H     1.737000000     3.513000000    -2.748000000
C     3.326000000     2.622000000    -1.697000000
O     3.427000000     1.709000000    -2.721000000
C     2.999000000     0.330000000    -2.530000000
C     2.235000000    -0.343000000    -3.693000000
C     1.151000000     0.343000000    -4.214000000
H     0.839000000     1.352000000    -3.955000000
C     2.447000000    -1.634000000    -4.018000000
H     3.252000000    -2.268000000    -3.653000000
O     4.168000000    -0.462000000    -2.184000000
H     2.264000000     0.340000000    -1.711000000
C     4.167000000     2.542000000    -0.601000000
C     5.302000000     1.539000000    -0.463000000
H     6.059000000     1.901000000     0.236000000
H     5.820000000     1.562000000    -1.424000000
C     4.878000000     0.136000000     0.031000000
C     4.369000000    -0.810000000    -0.892000000
C     3.952000000    -2.083000000    -0.603000000
H     3.617000000    -2.835000000    -1.313000000
C     4.066000000    -2.405000000     0.770000000
O     3.613000000    -3.640000000     1.154000000
C     2.224000000    -3.728000000     1.620000000
H     1.799000000    -2.817000000     1.174000000
C     1.366000000    -4.812000000     1.057000000
C     0.259000000    -5.290000000     1.654000000
H    -0.091000000    -4.977000000     2.635000000
C     1.786000000    -5.451000000    -0.142000000
H     2.691000000    -5.075000000    -0.612000000
C     1.090000000    -6.508000000    -0.693000000
O     1.539000000    -7.192000000    -1.802000000
C     0.054000000    -7.054000000     0.016000000
H    -0.330000000    -8.017000000    -0.310000000
C    -0.404000000    -6.437000000     1.150000000
O    -1.500000000    -7.014000000     1.722000000
C    -2.384000000    -6.112000000     2.355000000
C    -2.826000000    -4.924000000     1.751000000
H    -2.379000000    -4.455000000     0.878000000
C    -3.001000000    -6.495000000     3.548000000
H    -2.617000000    -7.435000000     3.937000000
C    -3.802000000    -5.559000000     4.185000000
H    -4.175000000    -5.741000000     5.189000000
C    -4.291000000    -4.412000000     3.554000000
H    -4.920000000    -3.663000000     4.028000000
C    -3.822000000    -4.123000000     2.301000000
O    -4.105000000    -2.918000000     1.671000000
C    -4.138000000    -1.702000000     2.291000000
C    -5.250000000    -0.897000000     2.094000000
H    -6.086000000    -1.153000000     1.448000000
C    -5.179000000     0.435000000     2.488000000
O    -6.243000000     1.264000000     2.297000000
C    -6.268000000     2.607000000     1.921000000
C    -5.675000000     2.961000000     0.750000000
H    -5.327000000     2.165000000     0.097000000
C    -6.873000000     3.540000000     2.742000000
H    -7.407000000     3.306000000     3.659000000
C    -6.949000000     4.887000000     2.316000000
H    -7.467000000     5.660000000     2.877000000
C    -6.403000000     5.254000000     1.051000000
H    -6.748000000     6.205000000     0.654000000
C    -5.734000000     4.296000000     0.326000000
O    -5.236000000     4.648000000    -0.957000000
C    -3.986000000     4.589000000    -1.495000000
C    -3.945000000     4.701000000    -2.812000000
H    -4.848000000     4.682000000    -3.417000000
C    -2.643000000     4.717000000    -3.320000000
O    -2.474000000     4.802000000    -4.658000000
C    -1.740000000     3.973000000    -5.442000000
C    -1.647000000     2.556000000    -5.135000000
H    -2.123000000     2.160000000    -4.242000000
C    -1.223000000     4.441000000    -6.657000000
H    -1.413000000     5.462000000    -6.977000000
C    -0.442000000     3.609000000    -7.468000000
H     0.044000000     4.085000000    -8.316000000
C    -0.366000000     2.225000000    -7.197000000
H     0.141000000     1.513000000    -7.842000000
C    -0.914000000     1.724000000    -6.041000000
O    -0.744000000     0.382000000    -5.788000000
C     0.348000000    -0.276000000    -5.203000000
C     0.493000000    -1.650000000    -5.515000000
H    -0.153000000    -2.233000000    -6.166000000
C     1.545000000    -2.325000000    -4.882000000
O     1.620000000    -3.695000000    -5.071000000
C     2.312000000    -4.688000000    -4.402000000
C     3.649000000    -4.914000000    -4.629000000
H     4.221000000    -4.352000000    -5.364000000
C     4.287000000    -5.938000000    -3.864000000
H     5.300000000    -6.293000000    -4.036000000
C     3.549000000    -6.774000000    -3.012000000
H     3.883000000    -7.726000000    -2.608000000
C     2.215000000    -6.505000000    -2.797000000
C     1.608000000    -5.427000000    -3.418000000
H     0.555000000    -5.240000000    -3.222000000
O    -9.166000000    -2.897000000    -3.801000000
H    -8.367000000    -3.025000000    -4.311000000
H    -8.898000000    -3.047000000    -2.894000000
O    -4.831000000    -3.674000000    -5.860000000
H    -3.944000000    -3.956000000    -5.638000000
H    -4.972000000    -2.887000000    -5.333000000
O    -6.823000000    -5.422000000     0.943000000
H    -7.174000000    -4.556000000     0.736000000
H    -5.909000000    -5.383000000     0.663000000
O    -0.871000000    -6.555000000    -5.418000000
H    -1.417000000    -5.770000000    -5.448000000
H    -0.685000000    -6.682000000    -4.488000000
O    -7.895000000    -6.017000000    -2.298000000
H    -7.499000000    -6.881000000    -2.410000000
H    -7.214000000    -5.404000000    -2.575000000
O    -2.218000000    -6.109000000    -2.798000000
H    -1.623000000    -6.470000000    -2.141000000
H    -2.539000000    -5.296000000    -2.409000000
O    -1.849000000    -3.192000000    -8.324000000
H    -2.074000000    -3.903000000    -8.924000000
H    -1.392000000    -3.623000000    -7.602000000
O    -8.042000000    -2.962000000     0.963000000
H    -8.072000000    -3.106000000     1.909000000
H    -7.994000000    -2.011000000     0.867000000
O    -4.533000000    -1.171000000    -4.566000000
H    -4.388000000    -1.482000000    -3.673000000
H    -5.188000000    -0.479000000    -4.476000000
O    -4.726000000    -5.556000000    -1.021000000
H    -4.817000000    -5.724000000    -1.959000000
H    -4.487000000    -4.631000000    -0.965000000
O    -8.707000000     0.787000000    -1.404000000
H    -7.933000000     0.234000000    -1.298000000
H    -8.356000000     1.666000000    -1.548000000
O    -6.478000000    -2.776000000    -7.924000000
H    -6.993000000    -2.068000000    -7.536000000
H    -5.958000000    -3.120000000    -7.198000000
O    -4.779000000    -6.394000000    -3.792000000
H    -4.831000000    -6.470000000    -4.745000000
H    -3.881000000    -6.647000000    -3.580000000
O    -6.341000000    -0.397000000    -1.700000000
H    -5.584000000    -0.981000000    -1.709000000
H    -6.620000000    -0.353000000    -2.615000000
O    -3.315000000    -0.762000000    -8.009000000
H    -2.670000000    -0.376000000    -7.417000000
H    -3.107000000    -1.696000000    -8.014000000
O    -2.342000000    -3.744000000    -4.778000000
H    -2.560000000    -3.842000000    -3.851000000
H    -2.604000000    -2.849000000    -4.992000000
O    -7.005000000     0.269000000    -4.088000000
H    -6.942000000     1.224000000    -4.105000000
H    -7.573000000     0.053000000    -4.827000000
O    -4.575000000    -7.942000000     0.547000000
H    -4.680000000    -7.127000000     0.057000000
H    -3.880000000    -8.411000000     0.087000000
O    -6.552000000    -3.619000000    -3.079000000
H    -5.825000000    -3.914000000    -3.628000000
H    -6.165000000    -2.960000000    -2.503000000
