201
-1247.21461
C    -3.915000000     0.554000000     3.910000000
H    -3.825000000     1.370000000     4.623000000
C    -2.826000000    -0.187000000     3.540000000
C    -2.973000000    -1.342000000     2.818000000
H    -2.067000000    -1.906000000     2.608000000
C    -1.453000000     0.274000000     3.934000000
O    -1.419000000     1.545000000     4.633000000
H    -0.852000000     0.369000000     3.017000000
O    -0.819000000    -0.787000000     4.737000000
C     0.451000000    -1.062000000     4.391000000
C     0.637000000    -2.308000000     3.724000000
H    -0.255000000    -2.929000000     3.691000000
C     1.925000000    -2.582000000     3.243000000
O     2.105000000    -3.741000000     2.479000000
C     2.983000000    -1.651000000     3.358000000
C     4.379000000    -1.923000000     2.777000000
H     5.098000000    -1.321000000     3.337000000
C     4.448000000    -1.489000000     1.318000000
C     4.826000000    -0.184000000     1.021000000
H     5.055000000     0.530000000     1.808000000
H     4.637000000    -2.971000000     2.946000000
C     2.698000000    -0.457000000     4.041000000
H     3.509000000     0.258000000     4.154000000
C     1.549000000    -0.146000000     4.579000000
C     1.457000000     1.218000000     5.288000000
H     2.419000000     1.430000000     5.756000000
H     0.764000000     0.984000000     6.099000000
C     0.905000000     2.336000000     4.492000000
C     1.777000000     3.113000000     3.731000000
H     2.837000000     3.119000000     3.972000000
C    -0.464000000     2.461000000     4.216000000
C    -0.924000000     3.386000000     3.222000000
H    -1.988000000     3.469000000     3.015000000
C    -0.021000000     4.132000000     2.425000000
O    -0.462000000     4.819000000     1.367000000
C    -0.288000000     4.252000000     0.037000000
C    -1.659000000     4.298000000    -0.728000000
C    -1.738000000     3.758000000    -2.044000000
H    -0.779000000     3.584000000    -2.527000000
C    -2.834000000     4.346000000    -0.014000000
H    -2.843000000     4.616000000     1.038000000
O     0.742000000     4.980000000    -0.567000000
H     0.081000000     3.223000000     0.161000000
C     1.306000000     4.054000000     2.743000000
C     2.328000000     4.897000000     1.918000000
H     3.303000000     5.087000000     2.372000000
H     1.954000000     5.891000000     1.663000000
C     2.662000000     4.215000000     0.589000000
C     3.787000000     3.384000000     0.477000000
H     4.479000000     3.306000000     1.312000000
C     1.880000000     4.319000000    -0.556000000
C     2.175000000     3.622000000    -1.705000000
H     1.527000000     3.626000000    -2.577000000
C     3.244000000     2.659000000    -1.704000000
O     3.396000000     2.021000000    -2.910000000
C     3.049000000     0.600000000    -2.991000000
C     2.445000000     0.149000000    -4.314000000
C     1.803000000     1.089000000    -5.123000000
H     1.841000000     2.148000000    -4.878000000
C     2.227000000    -1.199000000    -4.427000000
H     2.771000000    -2.022000000    -3.970000000
O     4.239000000    -0.154000000    -2.633000000
H     2.361000000     0.376000000    -2.162000000
C     4.055000000     2.591000000    -0.614000000
C     5.247000000     1.652000000    -0.577000000
H     5.819000000     2.009000000     0.282000000
H     5.872000000     1.856000000    -1.449000000
C     4.793000000     0.234000000    -0.330000000
C     4.379000000    -0.622000000    -1.346000000
C     4.040000000    -1.930000000    -1.060000000
H     3.663000000    -2.596000000    -1.832000000
C     4.111000000    -2.377000000     0.267000000
O     3.579000000    -3.626000000     0.530000000
C     2.180000000    -3.638000000     1.044000000
H     1.681000000    -2.685000000     0.812000000
C     1.441000000    -4.799000000     0.415000000
C     0.248000000    -5.190000000     0.944000000
H    -0.110000000    -4.863000000     1.917000000
C     1.721000000    -5.306000000    -0.873000000
H     2.570000000    -4.877000000    -1.400000000
C     0.915000000    -6.220000000    -1.541000000
O     1.161000000    -6.711000000    -2.838000000
C    -0.188000000    -6.697000000    -0.905000000
H    -0.803000000    -7.449000000    -1.392000000
C    -0.549000000    -6.163000000     0.346000000
O    -1.598000000    -6.596000000     1.088000000
C    -2.381000000    -5.902000000     1.998000000
C    -3.116000000    -4.847000000     1.462000000
H    -2.893000000    -4.564000000     0.436000000
C    -2.572000000    -6.221000000     3.340000000
H    -1.954000000    -6.992000000     3.794000000
C    -3.502000000    -5.598000000     4.143000000
H    -3.716000000    -5.914000000     5.160000000
C    -4.195000000    -4.468000000     3.644000000
H    -4.956000000    -3.936000000     4.209000000
C    -3.974000000    -4.089000000     2.301000000
O    -4.492000000    -2.949000000     1.701000000
C    -4.229000000    -1.769000000     2.369000000
C    -5.274000000    -0.945000000     2.617000000
H    -6.265000000    -1.258000000     2.297000000
C    -5.052000000     0.233000000     3.290000000
O    -6.113000000     1.103000000     3.397000000
C    -5.872000000     2.364000000     3.010000000
C    -5.578000000     2.715000000     1.691000000
H    -5.441000000     1.961000000     0.919000000
C    -6.188000000     3.339000000     3.951000000
H    -6.517000000     2.929000000     4.903000000
C    -6.060000000     4.726000000     3.636000000
H    -6.270000000     5.491000000     4.379000000
C    -5.718000000     5.042000000     2.340000000
H    -5.724000000     6.102000000     2.101000000
C    -5.517000000     4.066000000     1.380000000
O    -5.212000000     4.482000000     0.067000000
C    -4.056000000     4.122000000    -0.609000000
C    -4.120000000     3.725000000    -1.936000000
H    -5.066000000     3.531000000    -2.434000000
C    -2.961000000     3.583000000    -2.671000000
O    -2.993000000     2.943000000    -3.893000000
C    -2.215000000     3.192000000    -5.026000000
C    -1.343000000     2.153000000    -5.416000000
H    -1.264000000     1.154000000    -4.995000000
C    -2.243000000     4.451000000    -5.578000000
H    -2.963000000     5.211000000    -5.285000000
C    -1.476000000     4.672000000    -6.675000000
H    -1.431000000     5.663000000    -7.118000000
C    -0.508000000     3.720000000    -7.106000000
H     0.152000000     4.033000000    -7.911000000
C    -0.498000000     2.407000000    -6.541000000
O     0.422000000     1.534000000    -7.007000000
C     1.044000000     0.623000000    -6.150000000
C     0.907000000    -0.736000000    -6.389000000
H     0.373000000    -1.008000000    -7.296000000
C     1.448000000    -1.689000000    -5.509000000
O     1.445000000    -3.019000000    -5.870000000
C     1.995000000    -3.989000000    -5.127000000
C     3.372000000    -4.256000000    -5.295000000
H     3.905000000    -3.533000000    -5.907000000
C     3.977000000    -5.248000000    -4.610000000
H     5.036000000    -5.388000000    -4.809000000
C     3.198000000    -6.140000000    -3.844000000
H     3.646000000    -7.036000000    -3.421000000
C     1.820000000    -5.895000000    -3.690000000
C     1.190000000    -4.851000000    -4.369000000
H     0.140000000    -4.600000000    -4.245000000
O    -9.696000000    -0.668000000    -2.029000000
H    -8.943000000    -0.718000000    -2.617000000
H    -9.470000000     0.024000000    -1.408000000
O    -5.723000000    -4.600000000    -6.065000000
H    -6.489000000    -4.951000000    -6.519000000
H    -5.116000000    -5.338000000    -6.015000000
O    -3.136000000    -8.437000000    -0.382000000
H    -2.363000000    -8.115000000     0.082000000
H    -3.525000000    -7.654000000    -0.771000000
O    -5.616000000    -3.716000000    -3.265000000
H    -5.820000000    -3.949000000    -4.171000000
H    -4.731000000    -3.352000000    -3.305000000
O    -8.498000000    -2.568000000    -5.161000000
H    -8.339000000    -3.159000000    -5.898000000
H    -8.071000000    -1.749000000    -5.415000000
O    -1.928000000    -3.763000000    -5.202000000
H    -2.119000000    -2.899000000    -5.568000000
H    -2.327000000    -3.748000000    -4.332000000
O    -6.026000000    -3.937000000    -0.441000000
H    -5.535000000    -3.234000000    -0.015000000
H    -6.024000000    -3.703000000    -1.369000000
O    -7.695000000     1.676000000    -3.650000000
H    -7.778000000     2.549000000    -3.266000000
H    -8.506000000     1.554000000    -4.144000000
O    -1.939000000    -6.976000000    -6.310000000
H    -1.952000000    -6.224000000    -5.719000000
H    -2.386000000    -7.670000000    -5.825000000
O    -4.401000000    -2.725000000    -7.355000000
H    -4.638000000    -3.280000000    -6.612000000
H    -3.790000000    -2.085000000    -6.990000000
O    -8.236000000    -4.305000000     0.850000000
H    -8.205000000    -3.920000000     1.726000000
H    -7.408000000    -4.047000000     0.445000000
O    -4.716000000    -0.082000000    -4.301000000
H    -4.425000000    -0.620000000    -3.564000000
H    -4.696000000     0.814000000    -3.966000000
O    -3.934000000    -5.988000000    -1.882000000
H    -4.879000000    -6.039000000    -2.020000000
H    -3.668000000    -5.187000000    -2.334000000
O    -5.184000000     2.406000000    -6.286000000
H    -4.378000000     2.701000000    -5.862000000
H    -5.879000000     2.898000000    -5.849000000
O    -7.292000000    -6.801000000    -2.738000000
H    -7.731000000    -5.952000000    -2.768000000
H    -7.756000000    -7.334000000    -3.384000000
O    -6.019000000     0.497000000    -1.206000000
H    -5.372000000    -0.171000000    -1.432000000
H    -6.791000000     0.268000000    -1.722000000
O    -2.854000000    -0.916000000    -6.013000000
H    -2.768000000    -0.056000000    -6.425000000
H    -3.385000000    -0.757000000    -5.233000000
O    -6.983000000    -0.262000000    -5.762000000
H    -6.928000000     0.358000000    -5.035000000
H    -6.131000000    -0.698000000    -5.770000000
O    -7.107000000    -1.656000000    -2.678000000
H    -7.367000000    -2.183000000    -3.434000000
H    -6.174000000    -1.839000000    -2.569000000
