201
-1248.61351
C    -1.985000000    -1.737000000    -4.238000000
H    -2.308000000    -0.801000000    -4.688000000
C    -2.439000000    -2.151000000    -3.007000000
C    -2.070000000    -3.433000000    -2.525000000
H    -2.335000000    -3.794000000    -1.534000000
C    -3.294000000    -1.314000000    -2.086000000
O    -4.158000000    -0.399000000    -2.795000000
H    -2.560000000    -0.678000000    -1.572000000
O    -4.016000000    -2.120000000    -1.088000000
C    -3.980000000    -1.748000000     0.274000000
C    -3.387000000    -2.596000000     1.163000000
H    -2.887000000    -3.476000000     0.766000000
C    -3.348000000    -2.239000000     2.469000000
O    -2.581000000    -3.016000000     3.259000000
C    -3.903000000    -1.046000000     2.929000000
C    -3.685000000    -0.548000000     4.375000000
H    -4.494000000     0.148000000     4.605000000
C    -2.310000000     0.176000000     4.404000000
C    -2.292000000     1.602000000     4.333000000
H    -3.209000000     2.180000000     4.258000000
H    -3.725000000    -1.358000000     5.107000000
C    -4.606000000    -0.219000000     2.039000000
H    -4.946000000     0.784000000     2.282000000
C    -4.686000000    -0.590000000     0.695000000
C    -5.441000000     0.278000000    -0.265000000
H    -6.260000000     0.818000000     0.215000000
H    -5.964000000    -0.365000000    -0.975000000
C    -4.551000000     1.248000000    -0.989000000
C    -4.232000000     2.479000000    -0.494000000
H    -4.735000000     2.933000000     0.355000000
C    -4.002000000     0.866000000    -2.275000000
C    -3.272000000     1.788000000    -3.006000000
H    -2.852000000     1.537000000    -3.977000000
C    -2.855000000     2.980000000    -2.352000000
O    -1.844000000     3.664000000    -2.898000000
C    -0.512000000     3.553000000    -2.400000000
C     0.546000000     3.546000000    -3.534000000
C     1.863000000     3.740000000    -3.197000000
H     2.229000000     3.868000000    -2.181000000
C     0.146000000     2.989000000    -4.739000000
H    -0.891000000     2.731000000    -4.935000000
O    -0.296000000     4.702000000    -1.489000000
H    -0.385000000     2.579000000    -1.905000000
C    -3.360000000     3.337000000    -1.092000000
C    -2.938000000     4.636000000    -0.469000000
H    -3.850000000     4.921000000     0.060000000
H    -2.695000000     5.297000000    -1.304000000
C    -1.651000000     4.436000000     0.406000000
C    -1.815000000     4.209000000     1.775000000
H    -2.802000000     4.066000000     2.205000000
C    -0.408000000     4.508000000    -0.127000000
C     0.741000000     4.276000000     0.667000000
H     1.709000000     4.303000000     0.173000000
C     0.525000000     3.909000000     2.018000000
O     1.669000000     3.719000000     2.768000000
C     1.997000000     2.402000000     3.170000000
C     3.502000000     2.244000000     3.087000000
C     4.144000000     2.605000000     1.904000000
H     3.595000000     3.325000000     1.302000000
C     4.153000000     1.314000000     3.918000000
H     3.678000000     0.977000000     4.836000000
O     1.432000000     2.036000000     4.444000000
H     1.571000000     1.736000000     2.405000000
C    -0.777000000     3.967000000     2.633000000
C    -1.084000000     3.760000000     4.104000000
H    -2.061000000     4.082000000     4.471000000
H    -0.310000000     4.213000000     4.728000000
C    -1.046000000     2.267000000     4.301000000
C     0.138000000     1.510000000     4.501000000
C     0.074000000     0.150000000     4.682000000
H     0.982000000    -0.440000000     4.784000000
C    -1.120000000    -0.502000000     4.693000000
O    -1.159000000    -1.889000000     4.694000000
C    -1.260000000    -2.556000000     3.364000000
H    -1.075000000    -1.823000000     2.565000000
C    -0.176000000    -3.652000000     3.154000000
C    -0.566000000    -4.889000000     2.695000000
H    -1.643000000    -5.010000000     2.619000000
C     1.211000000    -3.371000000     3.267000000
H     1.493000000    -2.364000000     3.565000000
C     2.130000000    -4.399000000     2.886000000
O     3.438000000    -4.101000000     2.817000000
C     1.675000000    -5.665000000     2.493000000
H     2.388000000    -6.442000000     2.229000000
C     0.346000000    -5.845000000     2.329000000
O    -0.169000000    -6.892000000     1.657000000
C    -1.054000000    -6.739000000     0.618000000
C    -0.497000000    -6.289000000    -0.602000000
H     0.525000000    -5.919000000    -0.628000000
C    -2.379000000    -7.089000000     0.722000000
H    -2.707000000    -7.473000000     1.684000000
C    -3.281000000    -7.003000000    -0.327000000
H    -4.334000000    -7.253000000    -0.226000000
C    -2.786000000    -6.578000000    -1.559000000
H    -3.429000000    -6.673000000    -2.430000000
C    -1.427000000    -6.216000000    -1.723000000
O    -1.006000000    -5.629000000    -2.939000000
C    -1.258000000    -4.304000000    -3.324000000
C    -0.826000000    -3.815000000    -4.542000000
H    -0.226000000    -4.520000000    -5.112000000
C    -1.208000000    -2.591000000    -5.017000000
O    -0.946000000    -2.278000000    -6.319000000
C    -0.987000000    -1.041000000    -6.872000000
C    -0.202000000     0.002000000    -6.376000000
H     0.426000000    -0.251000000    -5.526000000
C    -1.784000000    -0.843000000    -7.993000000
H    -2.461000000    -1.615000000    -8.350000000
C    -1.979000000     0.382000000    -8.521000000
H    -2.532000000     0.494000000    -9.450000000
C    -1.087000000     1.352000000    -8.163000000
H    -1.161000000     2.303000000    -8.684000000
C    -0.175000000     1.264000000    -7.100000000
O     0.815000000     2.265000000    -6.976000000
C     1.147000000     2.803000000    -5.690000000
C     2.466000000     3.033000000    -5.360000000
H     3.304000000     2.778000000    -6.004000000
C     2.869000000     3.499000000    -4.144000000
O     4.133000000     3.272000000    -3.716000000
C     4.665000000     3.801000000    -2.577000000
C     5.224000000     2.916000000    -1.642000000
H     5.308000000     1.860000000    -1.886000000
C     4.591000000     5.184000000    -2.389000000
H     4.110000000     5.797000000    -3.146000000
C     5.094000000     5.741000000    -1.211000000
H     5.181000000     6.812000000    -1.044000000
C     5.582000000     4.868000000    -0.232000000
H     6.043000000     5.271000000     0.666000000
C     5.586000000     3.443000000    -0.409000000
O     6.091000000     2.600000000     0.600000000
C     5.392000000     2.157000000     1.700000000
C     6.069000000     1.173000000     2.455000000
H     7.029000000     0.724000000     2.211000000
C     5.406000000     0.780000000     3.605000000
O     5.964000000    -0.253000000     4.333000000
C     5.411000000    -1.500000000     4.492000000
C     5.590000000    -2.053000000     5.823000000
H     6.077000000    -1.524000000     6.638000000
C     4.990000000    -3.286000000     6.051000000
H     4.995000000    -3.800000000     7.009000000
C     4.320000000    -3.928000000     4.986000000
H     3.898000000    -4.895000000     5.249000000
C     4.119000000    -3.344000000     3.729000000
C     4.704000000    -2.095000000     3.425000000
H     4.514000000    -1.639000000     2.457000000
O     8.234000000    -4.102000000    -1.563000000
H     7.493000000    -4.443000000    -2.065000000
H     7.845000000    -3.780000000    -0.750000000
O     3.986000000    -5.462000000    -6.380000000
H     4.435000000    -6.287000000    -6.562000000
H     3.874000000    -5.454000000    -5.430000000
O     1.205000000    -3.629000000    -7.181000000
H     0.541000000    -2.975000000    -6.960000000
H     1.769000000    -3.668000000    -6.408000000
O     5.874000000    -8.616000000    -0.648000000
H     5.158000000    -8.016000000    -0.435000000
H     5.926000000    -9.204000000     0.106000000
O     4.211000000    -6.577000000     0.123000000
H     3.836000000    -5.839000000    -0.358000000
H     4.345000000    -6.242000000     1.009000000
O     1.654000000    -0.059000000    -3.173000000
H     1.681000000    -0.265000000    -2.238000000
H     2.542000000     0.235000000    -3.378000000
O     8.566000000    -1.466000000     1.534000000
H     8.146000000    -2.323000000     1.464000000
H     7.986000000    -0.875000000     1.054000000
O     3.900000000    -7.957000000    -4.630000000
H     3.261000000    -7.376000000    -4.217000000
H     3.639000000    -8.835000000    -4.351000000
O     2.144000000    -2.729000000    -4.750000000
H     1.568000000    -2.193000000    -4.205000000
H     2.662000000    -2.096000000    -5.247000000
O     7.586000000     0.315000000    -0.489000000
H     7.995000000     0.192000000    -1.346000000
H     7.551000000     1.264000000    -0.374000000
O     7.998000000    -3.845000000     3.791000000
H     8.738000000    -4.428000000     3.962000000
H     7.481000000    -4.302000000     3.127000000
O     6.435000000    -2.270000000    -4.437000000
H     6.427000000    -3.166000000    -4.100000000
H     6.188000000    -1.730000000    -3.687000000
O     5.007000000     0.771000000    -4.348000000
H     5.006000000     1.698000000    -4.109000000
H     5.180000000     0.312000000    -3.526000000
O     6.353000000    -5.757000000     2.313000000
H     7.014000000    -6.446000000     2.379000000
H     5.588000000    -6.116000000     2.762000000
O     3.020000000    -8.989000000     1.719000000
H     3.034000000    -8.781000000     0.784000000
H     2.102000000    -8.896000000     1.971000000
O     5.814000000    -4.475000000    -2.655000000
H     5.220000000    -5.102000000    -3.066000000
H     5.320000000    -4.128000000    -1.912000000
O     3.063000000    -5.279000000    -3.359000000
H     2.704000000    -4.451000000    -3.679000000
H     2.999000000    -5.216000000    -2.406000000
O     6.864000000    -3.626000000     0.862000000
H     6.029000000    -3.448000000     0.431000000
H     6.698000000    -4.403000000     1.396000000
O     5.438000000    -0.864000000    -2.089000000
H     4.940000000    -1.617000000    -1.772000000
H     5.955000000    -0.583000000    -1.334000000
