201
-1267.44613
C    -4.034000000     1.356000000     3.197000000
H    -3.726000000     2.375000000     3.418000000
C    -3.170000000     0.272000000     3.497000000
C    -3.725000000    -1.008000000     3.454000000
H    -3.093000000    -1.835000000     3.765000000
C    -1.706000000     0.459000000     3.794000000
O    -1.441000000     1.770000000     4.324000000
H    -1.134000000     0.356000000     2.860000000
O    -1.112000000    -0.580000000     4.655000000
C     0.138000000    -0.963000000     4.301000000
C     0.238000000    -2.164000000     3.565000000
H    -0.674000000    -2.691000000     3.300000000
C     1.507000000    -2.667000000     3.172000000
O     1.483000000    -3.777000000     2.348000000
C     2.698000000    -1.999000000     3.529000000
C     4.029000000    -2.440000000     3.004000000
H     4.848000000    -1.992000000     3.570000000
C     4.276000000    -2.081000000     1.540000000
C     5.013000000    -0.921000000     1.227000000
H     5.392000000    -0.304000000     2.039000000
H     4.146000000    -3.523000000     3.081000000
C     2.540000000    -0.803000000     4.213000000
H     3.410000000    -0.169000000     4.364000000
C     1.273000000    -0.231000000     4.617000000
C     1.215000000     1.139000000     5.283000000
H     2.139000000     1.350000000     5.824000000
H     0.516000000     1.127000000     6.121000000
C     0.920000000     2.223000000     4.156000000
C     1.987000000     2.759000000     3.410000000
H     2.998000000     2.391000000     3.562000000
C    -0.388000000     2.550000000     3.833000000
C    -0.645000000     3.480000000     2.866000000
H    -1.614000000     3.686000000     2.419000000
C     0.405000000     4.134000000     2.247000000
O     0.079000000     4.796000000     1.138000000
C     0.011000000     4.188000000    -0.140000000
C    -1.321000000     4.653000000    -0.777000000
C    -1.435000000     4.465000000    -2.154000000
H    -0.569000000     4.054000000    -2.666000000
C    -2.355000000     5.098000000    -0.056000000
H    -2.324000000     5.346000000     1.002000000
O     1.202000000     4.595000000    -0.834000000
H    -0.080000000     3.123000000     0.116000000
C     1.764000000     3.807000000     2.489000000
C     2.844000000     4.567000000     1.670000000
H     3.741000000     4.778000000     2.256000000
H     2.486000000     5.535000000     1.311000000
C     3.190000000     3.711000000     0.405000000
C     4.259000000     2.812000000     0.441000000
H     4.865000000     2.737000000     1.340000000
C     2.345000000     3.752000000    -0.758000000
C     2.656000000     2.936000000    -1.812000000
H     2.006000000     2.976000000    -2.682000000
C     3.788000000     2.069000000    -1.746000000
O     4.044000000     1.310000000    -2.840000000
C     3.453000000    -0.034000000    -2.638000000
C     2.676000000    -0.501000000    -3.829000000
C     1.541000000     0.214000000    -4.139000000
H     1.372000000     1.203000000    -3.720000000
C     3.028000000    -1.699000000    -4.501000000
H     3.884000000    -2.283000000    -4.175000000
O     4.555000000    -0.945000000    -2.387000000
H     2.746000000    -0.022000000    -1.795000000
C     4.570000000     1.947000000    -0.604000000
C     5.690000000     0.901000000    -0.427000000
H     6.341000000     1.210000000     0.393000000
H     6.350000000     0.758000000    -1.285000000
C     5.203000000    -0.461000000    -0.090000000
C     4.720000000    -1.304000000    -1.115000000
C     4.050000000    -2.458000000    -0.832000000
H     3.744000000    -3.098000000    -1.657000000
C     3.872000000    -2.910000000     0.480000000
O     2.978000000    -3.979000000     0.565000000
C     1.592000000    -3.689000000     0.912000000
H     1.412000000    -2.644000000     0.620000000
C     0.587000000    -4.615000000     0.135000000
C    -0.673000000    -4.829000000     0.681000000
H    -1.014000000    -4.379000000     1.610000000
C     0.997000000    -5.229000000    -1.097000000
H     2.027000000    -5.175000000    -1.441000000
C     0.026000000    -5.910000000    -1.834000000
O     0.358000000    -6.527000000    -3.053000000
C    -1.265000000    -6.047000000    -1.281000000
H    -2.023000000    -6.602000000    -1.829000000
C    -1.595000000    -5.530000000    -0.042000000
O    -2.828000000    -5.902000000     0.510000000
C    -3.397000000    -5.374000000     1.608000000
C    -4.123000000    -4.164000000     1.468000000
H    -4.390000000    -3.678000000     0.533000000
C    -3.147000000    -5.946000000     2.833000000
H    -2.613000000    -6.869000000     3.044000000
C    -3.707000000    -5.339000000     4.016000000
H    -3.500000000    -5.738000000     5.006000000
C    -4.421000000    -4.187000000     3.874000000
H    -4.813000000    -3.777000000     4.801000000
C    -4.690000000    -3.603000000     2.641000000
O    -5.478000000    -2.542000000     2.587000000
C    -4.961000000    -1.245000000     2.922000000
C    -5.775000000    -0.155000000     2.622000000
H    -6.810000000    -0.308000000     2.327000000
C    -5.351000000     1.137000000     2.793000000
O    -6.268000000     2.129000000     2.697000000
C    -5.845000000     3.435000000     2.544000000
C    -5.256000000     3.887000000     1.347000000
H    -4.966000000     3.254000000     0.512000000
C    -6.174000000     4.327000000     3.567000000
H    -6.652000000     4.037000000     4.499000000
C    -5.855000000     5.677000000     3.413000000
H    -6.280000000     6.306000000     4.190000000
C    -5.281000000     6.201000000     2.247000000
H    -5.211000000     7.268000000     2.049000000
C    -5.065000000     5.260000000     1.181000000
O    -4.713000000     5.670000000    -0.074000000
C    -3.561000000     5.313000000    -0.685000000
C    -3.689000000     5.240000000    -2.051000000
H    -4.614000000     5.546000000    -2.533000000
C    -2.652000000     4.728000000    -2.858000000
O    -2.802000000     4.525000000    -4.186000000
C    -1.745000000     3.902000000    -4.892000000
C    -1.622000000     2.543000000    -4.886000000
H    -2.377000000     1.935000000    -4.395000000
C    -0.842000000     4.631000000    -5.652000000
H    -0.949000000     5.713000000    -5.678000000
C     0.333000000     4.042000000    -6.116000000
H     1.114000000     4.708000000    -6.474000000
C     0.505000000     2.674000000    -6.058000000
H     1.379000000     2.176000000    -6.469000000
C    -0.500000000     1.924000000    -5.472000000
O    -0.502000000     0.583000000    -5.449000000
C     0.671000000    -0.154000000    -5.207000000
C     0.972000000    -1.365000000    -5.820000000
H     0.528000000    -1.760000000    -6.730000000
C     2.130000000    -2.106000000    -5.443000000
O     2.396000000    -3.256000000    -6.064000000
C     2.412000000    -4.513000000    -5.357000000
C     3.466000000    -5.428000000    -5.512000000
H     4.231000000    -5.130000000    -6.224000000
C     3.532000000    -6.632000000    -4.749000000
H     4.457000000    -7.201000000    -4.800000000
C     2.514000000    -6.995000000    -3.858000000
H     2.390000000    -7.916000000    -3.294000000
C     1.412000000    -6.132000000    -3.773000000
C     1.384000000    -4.978000000    -4.534000000
H     0.552000000    -4.283000000    -4.450000000
O    -9.236000000    -5.017000000    -2.829000000
H    -9.298000000    -4.877000000    -1.884000000
H    -8.423000000    -4.580000000    -3.083000000
O    -3.798000000    -6.160000000    -4.449000000
H    -3.630000000    -5.315000000    -4.032000000
H    -3.343000000    -6.794000000    -3.895000000
O    -7.238000000    -6.195000000     0.428000000
H    -7.729000000    -5.392000000     0.253000000
H    -6.453000000    -6.118000000    -0.114000000
O    -5.304000000     2.660000000    -4.162000000
H    -4.525000000     3.129000000    -3.862000000
H    -5.121000000     1.741000000    -3.965000000
O    -1.478000000    -5.542000000    -6.008000000
H    -1.750000000    -4.663000000    -6.274000000
H    -2.202000000    -5.865000000    -5.473000000
O    -6.406000000    -0.704000000    -6.278000000
H    -6.511000000    -1.631000000    -6.493000000
H    -7.267000000    -0.433000000    -5.960000000
O    -3.771000000    -0.807000000    -6.911000000
H    -3.490000000     0.100000000    -6.792000000
H    -4.717000000    -0.785000000    -6.767000000
O    -6.103000000    -8.678000000    -1.782000000
H    -5.845000000    -7.757000000    -1.734000000
H    -6.954000000    -8.666000000    -2.219000000
O    -6.735000000    -2.589000000    -0.567000000
H    -5.977000000    -2.999000000    -0.984000000
H    -6.639000000    -1.656000000    -0.760000000
O    -5.077000000    -5.900000000    -1.062000000
H    -4.827000000    -5.136000000    -1.581000000
H    -4.425000000    -5.938000000    -0.362000000
O    -6.288000000    -5.891000000    -5.685000000
H    -5.436000000    -6.195000000    -5.373000000
H    -6.669000000    -6.653000000    -6.121000000
O    -5.963000000     0.047000000    -0.816000000
H    -6.650000000     0.446000000    -1.349000000
H    -5.186000000     0.061000000    -1.375000000
O    -9.055000000    -2.029000000    -4.032000000
H    -8.318000000    -2.631000000    -3.934000000
H    -9.809000000    -2.518000000    -3.703000000
O    -8.927000000    -4.077000000    -0.180000000
H    -8.287000000    -3.411000000    -0.432000000
H    -9.533000000    -3.619000000     0.401000000
O    -3.995000000     0.110000000    -3.138000000
H    -3.699000000    -0.540000000    -2.499000000
H    -3.950000000    -0.344000000    -3.979000000
O    -2.678000000    -8.476000000    -3.601000000
H    -3.293000000    -9.113000000    -3.963000000
H    -1.815000000    -8.814000000    -3.841000000
O    -2.633000000    -3.140000000    -6.170000000
H    -3.132000000    -2.331000000    -6.277000000
H    -2.804000000    -3.410000000    -5.267000000
O    -6.223000000    -3.307000000    -6.796000000
H    -6.123000000    -3.831000000    -7.591000000
H    -6.069000000    -3.925000000    -6.081000000
O    -6.475000000    -4.170000000    -3.352000000
H    -5.701000000    -3.688000000    -3.058000000
H    -6.206000000    -4.572000000    -4.178000000
