201
-1231.15146
C    -3.722000000     1.283000000     3.310000000
H    -3.342000000     2.296000000     3.213000000
C    -2.872000000     0.223000000     3.695000000
C    -3.346000000    -1.082000000     3.494000000
H    -2.650000000    -1.881000000     3.737000000
C    -1.404000000     0.469000000     3.858000000
O    -1.080000000     1.706000000     4.532000000
H    -0.947000000     0.413000000     2.859000000
O    -0.763000000    -0.586000000     4.625000000
C     0.463000000    -1.056000000     4.181000000
C     0.463000000    -2.259000000     3.469000000
H    -0.476000000    -2.660000000     3.097000000
C     1.679000000    -2.757000000     2.912000000
O     1.690000000    -3.955000000     2.243000000
C     2.894000000    -2.062000000     3.194000000
C     4.251000000    -2.506000000     2.654000000
H     5.013000000    -1.946000000     3.200000000
C     4.462000000    -2.304000000     1.163000000
C     4.987000000    -1.070000000     0.800000000
H     5.389000000    -0.452000000     1.599000000
H     4.400000000    -3.572000000     2.842000000
C     2.772000000    -0.802000000     3.859000000
H     3.627000000    -0.145000000     4.000000000
C     1.608000000    -0.357000000     4.444000000
C     1.637000000     0.935000000     5.246000000
H     2.624000000     1.092000000     5.685000000
H     0.920000000     0.819000000     6.061000000
C     1.253000000     2.082000000     4.312000000
C     2.292000000     2.750000000     3.584000000
H     3.302000000     2.348000000     3.619000000
C    -0.088000000     2.492000000     4.075000000
C    -0.381000000     3.574000000     3.291000000
H    -1.429000000     3.832000000     3.163000000
C     0.609000000     4.160000000     2.589000000
O     0.065000000     4.930000000     1.589000000
C     0.015000000     4.426000000     0.228000000
C    -1.218000000     4.886000000    -0.508000000
C    -1.225000000     4.777000000    -1.853000000
H    -0.266000000     4.491000000    -2.276000000
C    -2.334000000     5.214000000     0.191000000
H    -2.303000000     5.273000000     1.276000000
O     1.212000000     4.755000000    -0.495000000
H     0.029000000     3.341000000     0.409000000
C     1.960000000     3.839000000     2.731000000
C     2.953000000     4.468000000     1.837000000
H     3.921000000     4.524000000     2.341000000
H     2.792000000     5.529000000     1.635000000
C     3.098000000     3.603000000     0.548000000
C     4.188000000     2.729000000     0.401000000
H     4.934000000     2.614000000     1.183000000
C     2.180000000     3.796000000    -0.499000000
C     2.417000000     3.147000000    -1.662000000
H     1.836000000     3.304000000    -2.567000000
C     3.358000000     2.114000000    -1.767000000
O     3.331000000     1.328000000    -2.869000000
C     3.035000000    -0.075000000    -2.763000000
C     1.996000000    -0.528000000    -3.785000000
C     1.039000000     0.372000000    -4.261000000
H     1.014000000     1.305000000    -3.704000000
C     2.099000000    -1.769000000    -4.390000000
H     2.819000000    -2.529000000    -4.097000000
O     4.202000000    -0.849000000    -2.674000000
H     2.569000000    -0.183000000    -1.772000000
C     4.306000000     1.963000000    -0.804000000
C     5.454000000     0.925000000    -0.827000000
H     6.259000000     1.194000000    -0.140000000
H     5.747000000     0.947000000    -1.878000000
C     5.051000000    -0.525000000    -0.507000000
C     4.431000000    -1.393000000    -1.479000000
C     3.829000000    -2.590000000    -1.180000000
H     3.309000000    -3.196000000    -1.918000000
C     3.839000000    -3.051000000     0.165000000
O     3.151000000    -4.124000000     0.429000000
C     1.796000000    -3.903000000     0.810000000
H     1.467000000    -2.991000000     0.290000000
C     0.875000000    -4.915000000     0.212000000
C    -0.450000000    -4.842000000     0.561000000
H    -0.649000000    -4.132000000     1.360000000
C     1.234000000    -5.608000000    -0.955000000
H     2.222000000    -5.437000000    -1.374000000
C     0.247000000    -6.423000000    -1.595000000
O     0.572000000    -7.022000000    -2.788000000
C    -1.045000000    -6.552000000    -1.036000000
H    -1.838000000    -7.178000000    -1.438000000
C    -1.389000000    -5.703000000     0.018000000
O    -2.675000000    -5.644000000     0.364000000
C    -3.098000000    -5.127000000     1.580000000
C    -4.048000000    -4.120000000     1.638000000
H    -4.461000000    -3.591000000     0.783000000
C    -2.596000000    -5.733000000     2.778000000
H    -2.019000000    -6.654000000     2.807000000
C    -3.152000000    -5.398000000     4.016000000
H    -2.794000000    -5.923000000     4.898000000
C    -4.049000000    -4.364000000     4.097000000
H    -4.391000000    -3.924000000     5.030000000
C    -4.505000000    -3.752000000     2.918000000
O    -5.241000000    -2.605000000     3.075000000
C    -4.678000000    -1.390000000     3.137000000
C    -5.505000000    -0.304000000     2.948000000
H    -6.562000000    -0.514000000     2.809000000
C    -5.034000000     1.018000000     2.952000000
O    -6.002000000     1.941000000     2.508000000
C    -5.811000000     3.323000000     2.448000000
C    -5.378000000     3.953000000     1.310000000
H    -5.146000000     3.349000000     0.436000000
C    -6.361000000     4.091000000     3.490000000
H    -6.691000000     3.541000000     4.368000000
C    -6.403000000     5.468000000     3.316000000
H    -6.853000000     6.006000000     4.147000000
C    -5.895000000     6.092000000     2.207000000
H    -5.896000000     7.177000000     2.138000000
C    -5.273000000     5.354000000     1.230000000
O    -4.707000000     5.915000000     0.073000000
C    -3.500000000     5.487000000    -0.504000000
C    -3.564000000     5.466000000    -1.850000000
H    -4.508000000     5.624000000    -2.366000000
C    -2.399000000     5.145000000    -2.602000000
O    -2.523000000     5.029000000    -3.964000000
C    -1.534000000     4.377000000    -4.647000000
C    -1.568000000     3.008000000    -4.813000000
H    -2.314000000     2.537000000    -4.178000000
C    -0.397000000     5.019000000    -5.053000000
H    -0.275000000     6.098000000    -5.092000000
C     0.437000000     4.351000000    -5.890000000
H     1.260000000     4.943000000    -6.281000000
C     0.305000000     3.015000000    -6.314000000
H     1.017000000     2.627000000    -7.038000000
C    -0.641000000     2.260000000    -5.618000000
O    -0.836000000     0.875000000    -5.736000000
C     0.161000000    -0.005000000    -5.291000000
C     0.252000000    -1.225000000    -5.919000000
H    -0.481000000    -1.438000000    -6.693000000
C     1.157000000    -2.132000000    -5.414000000
O     1.211000000    -3.407000000    -5.982000000
C     1.653000000    -4.573000000    -5.335000000
C     2.827000000    -5.159000000    -5.799000000
H     3.363000000    -4.617000000    -6.575000000
C     3.150000000    -6.451000000    -5.321000000
H     4.045000000    -6.949000000    -5.685000000
C     2.387000000    -7.067000000    -4.283000000
H     2.576000000    -8.074000000    -3.922000000
C     1.237000000    -6.418000000    -3.881000000
C     0.847000000    -5.220000000    -4.398000000
H    -0.032000000    -4.663000000    -4.082000000
O    -5.356000000    -8.424000000     0.973000000
H    -6.286000000    -8.256000000     0.820000000
H    -4.954000000    -8.345000000     0.108000000
O    -1.940000000    -8.934000000     1.097000000
H    -2.167000000    -8.828000000     2.021000000
H    -2.703000000    -8.601000000     0.624000000
O    -2.470000000    -6.695000000    -3.689000000
H    -2.446000000    -5.778000000    -3.416000000
H    -3.402000000    -6.893000000    -3.782000000
O    -8.341000000    -4.948000000     0.339000000
H    -8.518000000    -4.115000000    -0.099000000
H    -7.484000000    -5.216000000     0.005000000
O    -6.192000000     2.024000000    -2.948000000
H    -6.700000000     1.213000000    -2.946000000
H    -5.536000000     1.898000000    -2.263000000
O    -4.044000000    -5.624000000    -6.803000000
H    -3.751000000    -6.535000000    -6.805000000
H    -3.281000000    -5.128000000    -6.504000000
O    -3.298000000    -1.198000000    -6.475000000
H    -3.455000000    -0.292000000    -6.209000000
H    -4.164000000    -1.605000000    -6.458000000
O    -5.964000000    -0.797000000    -1.658000000
H    -5.519000000    -1.618000000    -1.870000000
H    -5.440000000    -0.415000000    -0.954000000
O    -5.871000000    -5.678000000    -0.576000000
H    -5.444000000    -5.000000000    -1.099000000
H    -5.149000000    -6.170000000    -0.187000000
O    -5.308000000    -7.119000000    -3.995000000
H    -5.291000000    -6.164000000    -4.061000000
H    -5.680000000    -7.410000000    -4.827000000
O    -4.261000000     1.715000000    -1.135000000
H    -3.861000000     1.278000000    -1.887000000
H    -3.533000000     2.156000000    -0.698000000
O    -8.245000000    -2.137000000    -3.672000000
H    -7.388000000    -2.563000000    -3.709000000
H    -8.795000000    -2.747000000    -3.181000000
O    -8.305000000    -2.173000000    -0.435000000
H    -7.676000000    -1.519000000    -0.741000000
H    -9.128000000    -1.929000000    -0.858000000
O    -2.743000000     0.359000000    -2.879000000
H    -2.483000000    -0.158000000    -2.116000000
H    -2.190000000     0.033000000    -3.589000000
O    -4.444000000    -8.487000000    -1.589000000
H    -4.854000000    -8.350000000    -2.443000000
H    -3.657000000    -8.998000000    -1.780000000
O    -2.623000000    -3.864000000    -5.533000000
H    -2.796000000    -2.922000000    -5.541000000
H    -2.861000000    -4.143000000    -4.648000000
O    -5.745000000    -2.004000000    -5.919000000
H    -5.981000000    -2.470000000    -6.721000000
H    -6.223000000    -2.459000000    -5.227000000
O    -8.414000000    -6.811000000    -3.879000000
H    -8.440000000    -6.179000000    -4.598000000
H    -7.496000000    -7.078000000    -3.828000000
O    -6.061000000    -3.721000000    -3.768000000
H    -5.199000000    -3.765000000    -4.183000000
H    -5.876000000    -3.747000000    -2.829000000
