201
-1215.85985
C    -2.739000000     0.748000000     4.983000000
H    -2.501000000     1.802000000     4.867000000
C    -1.769000000    -0.169000000     4.765000000
C    -2.097000000    -1.565000000     4.747000000
H    -1.287000000    -2.251000000     4.516000000
C    -0.335000000     0.245000000     4.559000000
O     0.024000000     1.547000000     5.024000000
H    -0.220000000     0.272000000     3.465000000
O     0.627000000    -0.708000000     5.002000000
C     1.648000000    -0.937000000     4.198000000
C     1.580000000    -2.089000000     3.445000000
H     0.670000000    -2.672000000     3.557000000
C     2.547000000    -2.484000000     2.562000000
O     2.290000000    -3.595000000     1.733000000
C     3.751000000    -1.793000000     2.452000000
C     4.782000000    -2.271000000     1.497000000
H     5.797000000    -2.078000000     1.851000000
C     4.526000000    -1.701000000     0.134000000
C     4.913000000    -0.407000000    -0.198000000
H     5.489000000     0.162000000     0.528000000
H     4.744000000    -3.362000000     1.460000000
C     3.781000000    -0.571000000     3.095000000
H     4.706000000    -0.007000000     3.005000000
C     2.790000000    -0.153000000     4.021000000
C     2.953000000     1.185000000     4.776000000
H     4.002000000     1.471000000     4.681000000
H     2.484000000     1.126000000     5.760000000
C     2.132000000     2.277000000     4.020000000
C     2.807000000     3.028000000     3.073000000
H     3.856000000     2.819000000     2.879000000
C     0.683000000     2.309000000     4.108000000
C    -0.048000000     3.159000000     3.234000000
H    -1.133000000     3.174000000     3.287000000
C     0.675000000     3.847000000     2.292000000
O    -0.122000000     4.573000000     1.425000000
C    -0.234000000     4.075000000     0.130000000
C    -1.676000000     3.898000000    -0.434000000
C    -2.071000000     3.971000000    -1.732000000
H    -1.329000000     4.097000000    -2.516000000
C    -2.756000000     3.703000000     0.485000000
H    -2.534000000     3.718000000     1.550000000
O     0.582000000     4.777000000    -0.818000000
H     0.188000000     3.059000000     0.141000000
C     2.094000000     3.818000000     2.210000000
C     2.769000000     4.747000000     1.160000000
H     3.796000000     4.943000000     1.476000000
H     2.299000000     5.731000000     1.100000000
C     2.824000000     4.025000000    -0.191000000
C     3.908000000     3.247000000    -0.403000000
H     4.605000000     3.058000000     0.409000000
C     1.757000000     4.081000000    -1.102000000
C     1.848000000     3.523000000    -2.332000000
H     1.106000000     3.581000000    -3.124000000
C     2.888000000     2.666000000    -2.548000000
O     2.888000000     1.889000000    -3.679000000
C     2.393000000     0.546000000    -3.607000000
C     1.341000000     0.222000000    -4.695000000
C     0.592000000     1.211000000    -5.390000000
H     0.871000000     2.258000000    -5.294000000
C     0.916000000    -1.067000000    -4.970000000
H     1.319000000    -1.938000000    -4.461000000
O     3.561000000    -0.273000000    -3.682000000
H     1.912000000     0.460000000    -2.622000000
C     3.894000000     2.524000000    -1.585000000
C     5.045000000     1.533000000    -1.800000000
H     5.852000000     1.813000000    -1.119000000
H     5.561000000     1.631000000    -2.758000000
C     4.664000000     0.140000000    -1.472000000
C     3.963000000    -0.695000000    -2.445000000
C     3.549000000    -1.940000000    -2.008000000
H     2.906000000    -2.617000000    -2.563000000
C     3.773000000    -2.442000000    -0.802000000
O     3.148000000    -3.666000000    -0.480000000
C     1.949000000    -3.483000000     0.350000000
H     1.469000000    -2.508000000     0.178000000
C     0.880000000    -4.580000000    -0.028000000
C    -0.186000000    -4.914000000     0.806000000
H    -0.203000000    -4.369000000     1.746000000
C     0.815000000    -5.061000000    -1.314000000
H     1.668000000    -4.843000000    -1.951000000
C    -0.337000000    -5.805000000    -1.794000000
O    -0.341000000    -6.255000000    -3.132000000
C    -1.371000000    -6.104000000    -0.928000000
H    -2.148000000    -6.805000000    -1.221000000
C    -1.178000000    -5.753000000     0.410000000
O    -2.116000000    -6.190000000     1.316000000
C    -2.070000000    -5.800000000     2.600000000
C    -2.933000000    -4.812000000     3.127000000
H    -3.534000000    -4.249000000     2.417000000
C    -1.188000000    -6.447000000     3.497000000
H    -0.627000000    -7.296000000     3.116000000
C    -1.050000000    -5.961000000     4.773000000
H    -0.322000000    -6.453000000     5.413000000
C    -1.884000000    -4.942000000     5.264000000
H    -1.965000000    -4.718000000     6.325000000
C    -2.935000000    -4.361000000     4.436000000
O    -3.729000000    -3.366000000     4.855000000
C    -3.384000000    -1.983000000     4.964000000
C    -4.333000000    -0.989000000     5.265000000
H    -5.360000000    -1.305000000     5.429000000
C    -4.036000000     0.369000000     5.258000000
O    -5.009000000     1.338000000     5.437000000
C    -5.051000000     2.391000000     4.626000000
C    -5.167000000     2.210000000     3.235000000
H    -5.244000000     1.187000000     2.876000000
C    -5.004000000     3.739000000     5.120000000
H    -5.035000000     3.903000000     6.195000000
C    -4.920000000     4.847000000     4.245000000
H    -4.813000000     5.861000000     4.621000000
C    -4.979000000     4.601000000     2.874000000
H    -4.786000000     5.459000000     2.235000000
C    -5.175000000     3.278000000     2.362000000
O    -5.062000000     3.040000000     0.986000000
C    -4.035000000     3.203000000     0.090000000
C    -4.331000000     3.201000000    -1.229000000
H    -5.325000000     2.903000000    -1.552000000
C    -3.395000000     3.630000000    -2.101000000
O    -3.882000000     3.817000000    -3.428000000
C    -3.142000000     3.868000000    -4.594000000
C    -2.385000000     2.784000000    -5.109000000
H    -2.342000000     1.880000000    -4.507000000
C    -3.229000000     5.060000000    -5.264000000
H    -3.760000000     5.877000000    -4.781000000
C    -2.507000000     5.217000000    -6.468000000
H    -2.629000000     6.143000000    -7.025000000
C    -1.870000000     4.098000000    -7.020000000
H    -1.298000000     4.294000000    -7.923000000
C    -1.836000000     2.902000000    -6.339000000
O    -1.200000000     1.892000000    -6.948000000
C    -0.493000000     0.923000000    -6.230000000
C    -0.746000000    -0.381000000    -6.494000000
H    -1.620000000    -0.567000000    -7.113000000
C    -0.045000000    -1.389000000    -5.931000000
O    -0.428000000    -2.632000000    -6.225000000
C     0.167000000    -3.837000000    -5.823000000
C     1.486000000    -4.075000000    -6.205000000
H     2.019000000    -3.449000000    -6.916000000
C     2.153000000    -5.113000000    -5.590000000
H     3.132000000    -5.335000000    -6.007000000
C     1.544000000    -5.897000000    -4.554000000
H     2.113000000    -6.600000000    -3.952000000
C     0.261000000    -5.557000000    -4.215000000
C    -0.488000000    -4.620000000    -4.881000000
H    -1.445000000    -4.366000000    -4.434000000
O    -8.306000000    -4.112000000    -1.176000000
H    -7.505000000    -3.860000000    -0.716000000
H    -8.967000000    -3.496000000    -0.861000000
O    -7.593000000    -6.834000000    -2.102000000
H    -7.679000000    -5.983000000    -1.671000000
H    -8.482000000    -7.049000000    -2.386000000
O   -10.206000000    -5.622000000     0.786000000
H    -9.610000000    -5.297000000     0.111000000
H   -10.884000000    -4.950000000     0.850000000
O    -7.553000000    -5.533000000    -5.228000000
H    -6.930000000    -4.838000000    -5.441000000
H    -7.431000000    -5.685000000    -4.291000000
O    -7.289000000    -2.056000000    -3.099000000
H    -8.095000000    -2.560000000    -3.210000000
H    -6.675000000    -2.672000000    -2.698000000
O    -6.556000000     0.854000000    -2.239000000
H    -7.212000000     0.272000000    -2.623000000
H    -6.625000000     1.662000000    -2.748000000
O    -2.596000000    -8.506000000    -3.481000000
H    -3.143000000    -9.027000000    -2.893000000
H    -2.909000000    -7.608000000    -3.366000000
O    -8.708000000    -0.123000000     1.831000000
H    -9.010000000    -0.962000000     2.180000000
H    -8.034000000    -0.358000000     1.193000000
O    -9.208000000    -3.741000000     2.820000000
H    -8.380000000    -3.911000000     2.371000000
H    -9.824000000    -3.534000000     2.116000000
O    -7.083000000    -8.336000000    -0.002000000
H    -6.679000000    -9.201000000    -0.066000000
H    -7.341000000    -8.125000000    -0.899000000
O    -6.816000000    -0.902000000     0.026000000
H    -6.419000000    -1.725000000    -0.257000000
H    -6.677000000    -0.304000000    -0.708000000
O    -6.229000000    -4.338000000     1.765000000
H    -5.952000000    -3.803000000     1.022000000
H    -5.894000000    -5.213000000     1.569000000
O    -4.115000000    -6.417000000    -2.841000000
H    -4.959000000    -6.867000000    -2.796000000
H    -4.329000000    -5.492000000    -2.720000000
O    -6.343000000    -1.809000000     3.061000000
H    -6.190000000    -2.753000000     3.105000000
H    -6.252000000    -1.595000000     2.132000000
O    -5.994000000    -5.989000000     4.154000000
H    -6.745000000    -5.751000000     4.697000000
H    -6.050000000    -5.404000000     3.399000000
O    -3.548000000    -1.911000000    -5.328000000
H    -2.629000000    -2.171000000    -5.255000000
H    -3.688000000    -1.319000000    -4.589000000
O    -5.536000000    -3.746000000    -5.489000000
H    -5.298000000    -3.757000000    -4.562000000
H    -5.283000000    -2.874000000    -5.791000000
O    -4.163000000    -0.153000000    -3.115000000
H    -5.000000000     0.164000000    -2.777000000
H    -3.733000000    -0.548000000    -2.357000000
O    -5.202000000    -6.798000000     1.394000000
H    -5.943000000    -7.335000000     1.113000000
H    -4.496000000    -7.030000000     0.791000000
