201
-1242.25647
C    -3.358000000     0.774000000     4.055000000
H    -3.206000000     1.772000000     4.459000000
C    -2.329000000    -0.147000000     3.893000000
C    -2.661000000    -1.452000000     3.453000000
H    -1.884000000    -2.204000000     3.334000000
C    -0.882000000     0.250000000     4.024000000
O    -0.762000000     1.457000000     4.781000000
H    -0.368000000     0.391000000     3.061000000
O    -0.182000000    -0.884000000     4.645000000
C     1.122000000    -1.188000000     4.269000000
C     1.331000000    -2.405000000     3.626000000
H     0.549000000    -3.154000000     3.533000000
C     2.575000000    -2.645000000     3.008000000
O     2.743000000    -3.764000000     2.290000000
C     3.503000000    -1.655000000     2.896000000
C     4.790000000    -1.824000000     2.148000000
H     5.532000000    -1.200000000     2.650000000
C     4.689000000    -1.449000000     0.668000000
C     5.025000000    -0.145000000     0.251000000
H     5.378000000     0.604000000     0.954000000
H     5.085000000    -2.870000000     2.259000000
C     3.262000000    -0.437000000     3.540000000
H     4.034000000     0.321000000     3.435000000
C     2.181000000    -0.290000000     4.393000000
C     2.066000000     1.055000000     5.174000000
H     2.997000000     1.380000000     5.644000000
H     1.387000000     0.925000000     6.021000000
C     1.473000000     2.211000000     4.365000000
C     2.245000000     3.083000000     3.588000000
H     3.312000000     2.877000000     3.578000000
C     0.101000000     2.349000000     4.243000000
C    -0.483000000     3.216000000     3.377000000
H    -1.562000000     3.337000000     3.428000000
C     0.278000000     4.103000000     2.598000000
O    -0.386000000     4.674000000     1.574000000
C    -0.376000000     4.117000000     0.245000000
C    -1.744000000     3.972000000    -0.362000000
C    -1.914000000     3.437000000    -1.644000000
H    -1.014000000     3.179000000    -2.196000000
C    -2.959000000     4.242000000     0.353000000
H    -2.945000000     4.652000000     1.360000000
O     0.537000000     4.808000000    -0.589000000
H     0.007000000     3.108000000     0.457000000
C     1.661000000     3.961000000     2.673000000
C     2.571000000     4.747000000     1.592000000
H     3.536000000     4.890000000     2.082000000
H     2.162000000     5.751000000     1.463000000
C     2.656000000     3.991000000     0.290000000
C     3.730000000     3.173000000     0.103000000
H     4.394000000     2.906000000     0.921000000
C     1.728000000     4.189000000    -0.743000000
C     1.922000000     3.475000000    -1.921000000
H     1.163000000     3.576000000    -2.692000000
C     3.019000000     2.744000000    -2.218000000
O     2.997000000     2.012000000    -3.440000000
C     2.682000000     0.584000000    -3.347000000
C     1.813000000     0.251000000    -4.531000000
C     1.233000000     1.172000000    -5.346000000
H     1.214000000     2.205000000    -5.007000000
C     1.771000000    -1.121000000    -4.903000000
H     2.385000000    -1.778000000    -4.293000000
O     3.867000000    -0.232000000    -3.250000000
H     2.015000000     0.511000000    -2.474000000
C     3.945000000     2.511000000    -1.175000000
C     5.107000000     1.604000000    -1.463000000
H     5.948000000     1.950000000    -0.859000000
H     5.484000000     1.574000000    -2.488000000
C     4.787000000     0.231000000    -1.047000000
C     4.283000000    -0.631000000    -1.998000000
C     4.082000000    -1.972000000    -1.640000000
H     3.763000000    -2.600000000    -2.467000000
C     4.165000000    -2.326000000    -0.333000000
O     3.693000000    -3.556000000     0.053000000
C     2.435000000    -3.616000000     0.892000000
H     1.961000000    -2.628000000     0.791000000
C     1.429000000    -4.668000000     0.335000000
C     0.500000000    -5.277000000     1.200000000
H     0.534000000    -5.217000000     2.285000000
C     1.353000000    -4.741000000    -1.036000000
H     2.011000000    -4.157000000    -1.674000000
C     0.467000000    -5.711000000    -1.550000000
O     0.352000000    -5.878000000    -2.908000000
C    -0.471000000    -6.308000000    -0.703000000
H    -1.315000000    -6.886000000    -1.070000000
C    -0.465000000    -6.124000000     0.671000000
O    -1.550000000    -6.676000000     1.443000000
C    -2.093000000    -5.931000000     2.503000000
C    -3.030000000    -4.967000000     2.191000000
H    -3.094000000    -4.746000000     1.128000000
C    -1.830000000    -6.252000000     3.849000000
H    -1.049000000    -6.980000000     4.053000000
C    -2.373000000    -5.520000000     4.840000000
H    -2.241000000    -5.767000000     5.890000000
C    -3.193000000    -4.406000000     4.543000000
H    -3.534000000    -3.789000000     5.370000000
C    -3.512000000    -4.185000000     3.182000000
O    -4.223000000    -3.090000000     2.860000000
C    -3.959000000    -1.832000000     3.193000000
C    -5.003000000    -0.872000000     3.200000000
H    -6.051000000    -1.130000000     3.068000000
C    -4.641000000     0.359000000     3.816000000
O    -5.628000000     1.318000000     4.110000000
C    -5.735000000     2.620000000     3.619000000
C    -5.310000000     2.927000000     2.300000000
H    -4.870000000     2.134000000     1.701000000
C    -6.314000000     3.605000000     4.419000000
H    -6.627000000     3.411000000     5.441000000
C    -6.679000000     4.844000000     3.843000000
H    -7.091000000     5.670000000     4.418000000
C    -6.327000000     5.116000000     2.510000000
H    -6.645000000     6.082000000     2.124000000
C    -5.678000000     4.151000000     1.724000000
O    -5.345000000     4.312000000     0.385000000
C    -4.199000000     3.977000000    -0.229000000
C    -4.303000000     3.403000000    -1.514000000
H    -5.285000000     3.302000000    -1.971000000
C    -3.130000000     3.090000000    -2.222000000
O    -3.180000000     2.423000000    -3.372000000
C    -2.701000000     2.901000000    -4.621000000
C    -1.838000000     2.071000000    -5.301000000
H    -1.634000000     1.073000000    -4.922000000
C    -3.070000000     4.105000000    -5.128000000
H    -3.724000000     4.803000000    -4.613000000
C    -2.606000000     4.401000000    -6.437000000
H    -2.827000000     5.379000000    -6.857000000
C    -1.641000000     3.695000000    -7.088000000
H    -1.200000000     3.974000000    -8.042000000
C    -1.253000000     2.498000000    -6.498000000
O    -0.326000000     1.627000000    -7.173000000
C     0.475000000     0.738000000    -6.487000000
C     0.455000000    -0.601000000    -6.802000000
H    -0.055000000    -0.986000000    -7.682000000
C     1.128000000    -1.526000000    -6.110000000
O     1.198000000    -2.886000000    -6.475000000
C     1.699000000    -3.848000000    -5.607000000
C     2.985000000    -4.364000000    -5.708000000
H     3.638000000    -3.977000000    -6.487000000
C     3.421000000    -5.264000000    -4.785000000
H     4.440000000    -5.612000000    -4.933000000
C     2.544000000    -5.744000000    -3.802000000
H     2.974000000    -6.583000000    -3.261000000
C     1.248000000    -5.253000000    -3.792000000
C     0.823000000    -4.340000000    -4.673000000
H    -0.209000000    -3.998000000    -4.677000000
O    -7.609000000     0.973000000    -1.243000000
H    -7.834000000     1.375000000    -2.082000000
H    -7.328000000     0.086000000    -1.471000000
O    -2.465000000    -9.155000000     0.832000000
H    -1.759000000    -9.450000000     0.258000000
H    -2.135000000    -8.346000000     1.223000000
O    -6.831000000    -4.348000000    -3.033000000
H    -6.604000000    -4.087000000    -3.926000000
H    -5.989000000    -4.429000000    -2.586000000
O    -7.015000000    -1.981000000     0.677000000
H    -6.287000000    -2.548000000     0.427000000
H    -7.169000000    -1.434000000    -0.093000000
O    -4.716000000    -7.701000000     0.029000000
H    -3.812000000    -7.977000000     0.180000000
H    -5.211000000    -8.519000000    -0.024000000
O    -5.636000000    -6.961000000    -4.915000000
H    -5.183000000    -6.363000000    -4.321000000
H    -6.423000000    -7.222000000    -4.438000000
O    -8.018000000    -8.021000000    -0.460000000
H    -7.922000000    -7.448000000    -1.220000000
H    -7.526000000    -8.809000000    -0.690000000
O   -10.369000000    -3.047000000    -1.107000000
H    -9.838000000    -2.337000000    -0.746000000
H    -9.746000000    -3.755000000    -1.267000000
O    -3.070000000    -3.714000000    -6.629000000
H    -3.234000000    -3.443000000    -5.726000000
H    -2.531000000    -4.501000000    -6.549000000
O    -3.991000000    -6.717000000    -2.503000000
H    -4.357000000    -7.186000000    -1.753000000
H    -4.043000000    -5.794000000    -2.256000000
O    -4.510000000    -0.248000000    -3.251000000
H    -3.779000000     0.316000000    -2.999000000
H    -5.115000000     0.334000000    -3.709000000
O    -6.347000000    -5.345000000     1.082000000
H    -6.136000000    -6.084000000     0.510000000
H    -5.819000000    -4.622000000     0.743000000
O    -8.293000000    -4.959000000    -0.834000000
H    -7.734000000    -4.954000000    -1.611000000
H    -7.681000000    -4.948000000    -0.098000000
O    -6.879000000    -1.489000000    -1.949000000
H    -6.961000000    -2.349000000    -2.361000000
H    -6.022000000    -1.170000000    -2.231000000
O    -6.309000000    -3.108000000    -5.378000000
H    -6.871000000    -2.407000000    -5.049000000
H    -5.422000000    -2.754000000    -5.311000000
O    -3.874000000    -2.863000000    -4.173000000
H    -4.011000000    -3.345000000    -3.357000000
H    -3.767000000    -1.953000000    -3.898000000
O    -7.921000000    -7.087000000    -3.505000000
H    -8.113000000    -6.154000000    -3.601000000
H    -8.658000000    -7.527000000    -3.928000000
O    -2.064000000    -7.772000000    -4.042000000
H    -2.215000000    -8.687000000    -3.802000000
H    -2.816000000    -7.303000000    -3.680000000
O    -7.027000000    -3.888000000     3.212000000
H    -6.944000000    -3.261000000     2.493000000
H    -6.645000000    -4.697000000     2.868000000
