201
-1236.76079
C    -1.734000000    -1.580000000     3.275000000
H    -2.253000000    -0.819000000     2.697000000
C    -0.726000000    -1.260000000     4.163000000
C    -0.214000000    -2.280000000     4.995000000
H     0.631000000    -1.991000000     5.615000000
C    -0.126000000     0.169000000     4.093000000
O    -1.142000000     1.129000000     4.484000000
H     0.173000000     0.355000000     3.050000000
O     0.971000000     0.370000000     4.989000000
C     2.066000000     0.940000000     4.394000000
C     3.028000000     0.033000000     3.875000000
H     2.904000000    -1.014000000     4.138000000
C     3.890000000     0.531000000     2.998000000
O     4.615000000    -0.440000000     2.368000000
C     3.858000000     1.850000000     2.539000000
C     4.906000000     2.269000000     1.521000000
H     5.328000000     3.249000000     1.753000000
C     4.389000000     2.086000000     0.091000000
C     3.842000000     3.234000000    -0.531000000
H     3.742000000     4.154000000     0.039000000
H     5.777000000     1.643000000     1.725000000
C     2.867000000     2.730000000     3.056000000
H     2.843000000     3.699000000     2.565000000
C     1.975000000     2.278000000     4.042000000
C     0.815000000     3.097000000     4.570000000
H     1.066000000     4.091000000     4.946000000
H     0.379000000     2.628000000     5.454000000
C    -0.347000000     3.137000000     3.640000000
C    -0.431000000     4.221000000     2.730000000
H     0.321000000     4.999000000     2.823000000
C    -1.371000000     2.155000000     3.631000000
C    -2.429000000     2.189000000     2.699000000
H    -3.195000000     1.418000000     2.669000000
C    -2.492000000     3.294000000     1.824000000
O    -3.533000000     3.193000000     0.867000000
C    -3.181000000     2.767000000    -0.481000000
C    -4.273000000     1.948000000    -1.119000000
C    -4.575000000     2.003000000    -2.501000000
H    -4.096000000     2.718000000    -3.166000000
C    -4.943000000     0.978000000    -0.347000000
H    -4.613000000     0.888000000     0.685000000
O    -2.924000000     3.918000000    -1.251000000
H    -2.294000000     2.120000000    -0.415000000
C    -1.435000000     4.229000000     1.734000000
C    -1.447000000     5.313000000     0.652000000
H    -0.775000000     6.027000000     1.132000000
H    -2.374000000     5.865000000     0.484000000
C    -0.854000000     4.935000000    -0.686000000
C     0.538000000     5.034000000    -0.949000000
H     1.150000000     5.515000000    -0.190000000
C    -1.661000000     4.198000000    -1.601000000
C    -1.101000000     3.645000000    -2.796000000
H    -1.672000000     3.089000000    -3.535000000
C     0.266000000     3.854000000    -3.106000000
O     0.795000000     3.087000000    -4.081000000
C     1.268000000     1.743000000    -3.612000000
C     0.642000000     0.614000000    -4.398000000
C    -0.308000000     0.812000000    -5.415000000
H    -0.496000000     1.811000000    -5.800000000
C     0.896000000    -0.753000000    -4.023000000
H     1.621000000    -0.949000000    -3.236000000
O     2.696000000     1.685000000    -3.612000000
H     0.937000000     1.661000000    -2.566000000
C     1.089000000     4.520000000    -2.157000000
C     2.614000000     4.441000000    -2.405000000
H     3.032000000     5.373000000    -2.018000000
H     2.886000000     4.545000000    -3.457000000
C     3.309000000     3.206000000    -1.777000000
C     3.389000000     1.969000000    -2.457000000
C     3.943000000     0.851000000    -1.895000000
H     3.816000000    -0.168000000    -2.251000000
C     4.524000000     0.854000000    -0.662000000
O     4.940000000    -0.322000000    -0.017000000
C     4.176000000    -0.906000000     1.072000000
H     3.132000000    -0.562000000     1.052000000
C     4.083000000    -2.393000000     1.041000000
C     3.986000000    -3.197000000     2.220000000
H     4.143000000    -2.689000000     3.168000000
C     3.914000000    -3.005000000    -0.186000000
H     3.930000000    -2.409000000    -1.095000000
C     3.816000000    -4.374000000    -0.248000000
O     3.893000000    -5.063000000    -1.427000000
C     3.774000000    -5.142000000     0.838000000
H     3.637000000    -6.217000000     0.752000000
C     3.949000000    -4.571000000     2.087000000
O     3.855000000    -5.381000000     3.089000000
C     3.208000000    -5.061000000     4.274000000
C     1.838000000    -5.016000000     4.380000000
H     1.260000000    -5.057000000     3.460000000
C     3.970000000    -4.880000000     5.443000000
H     5.034000000    -5.099000000     5.389000000
C     3.438000000    -4.563000000     6.640000000
H     4.051000000    -4.413000000     7.526000000
C     2.095000000    -4.376000000     6.718000000
H     1.615000000    -3.989000000     7.613000000
C     1.320000000    -4.669000000     5.579000000
O    -0.071000000    -4.555000000     5.637000000
C    -0.683000000    -3.548000000     4.863000000
C    -1.704000000    -3.867000000     4.000000000
H    -2.090000000    -4.882000000     3.986000000
C    -2.294000000    -2.829000000     3.229000000
O    -3.448000000    -3.245000000     2.572000000
C    -4.608000000    -2.509000000     2.443000000
C    -5.034000000    -2.031000000     1.183000000
H    -4.517000000    -2.359000000     0.285000000
C    -5.299000000    -2.140000000     3.600000000
H    -4.995000000    -2.570000000     4.551000000
C    -6.357000000    -1.171000000     3.557000000
H    -6.855000000    -0.854000000     4.469000000
C    -6.787000000    -0.740000000     2.281000000
H    -7.633000000    -0.061000000     2.212000000
C    -6.194000000    -1.208000000     1.112000000
O    -6.556000000    -0.773000000    -0.127000000
C    -5.935000000     0.162000000    -0.893000000
C    -6.182000000     0.279000000    -2.262000000
H    -6.914000000    -0.371000000    -2.733000000
C    -5.505000000     1.134000000    -3.050000000
O    -5.896000000     1.342000000    -4.386000000
C    -5.052000000     1.521000000    -5.436000000
C    -3.891000000     0.800000000    -5.616000000
H    -3.705000000    -0.056000000    -4.974000000
C    -5.324000000     2.456000000    -6.400000000
H    -6.273000000     2.985000000    -6.420000000
C    -4.463000000     2.711000000    -7.493000000
H    -4.758000000     3.422000000    -8.261000000
C    -3.292000000     1.925000000    -7.597000000
H    -2.702000000     2.093000000    -8.494000000
C    -3.040000000     0.891000000    -6.691000000
O    -1.998000000     0.002000000    -6.843000000
C    -1.025000000    -0.238000000    -5.923000000
C    -0.746000000    -1.516000000    -5.519000000
H    -1.339000000    -2.362000000    -5.856000000
C     0.189000000    -1.842000000    -4.533000000
O     0.495000000    -3.141000000    -4.147000000
C     1.816000000    -3.480000000    -4.001000000
C     2.707000000    -3.391000000    -5.027000000
H     2.418000000    -2.967000000    -5.985000000
C     4.005000000    -3.842000000    -4.863000000
H     4.733000000    -3.729000000    -5.662000000
C     4.415000000    -4.513000000    -3.684000000
H     5.417000000    -4.921000000    -3.580000000
C     3.488000000    -4.524000000    -2.600000000
C     2.185000000    -4.074000000    -2.788000000
H     1.486000000    -4.139000000    -1.958000000
O    -0.531000000    -7.048000000    -0.429000000
H    -0.683000000    -7.587000000    -1.205000000
H    -1.134000000    -6.311000000    -0.527000000
O    -3.740000000    -6.594000000    -4.634000000
H    -3.031000000    -6.026000000    -4.934000000
H    -4.431000000    -5.991000000    -4.361000000
O    -6.930000000    -1.743000000    -5.692000000
H    -7.427000000    -1.307000000    -5.000000000
H    -6.383000000    -2.378000000    -5.231000000
O    -1.572000000    -4.893000000    -4.377000000
H    -0.854000000    -4.383000000    -4.002000000
H    -2.242000000    -4.904000000    -3.694000000
O    -3.543000000    -6.979000000    -1.315000000
H    -3.098000000    -6.144000000    -1.175000000
H    -4.462000000    -6.743000000    -1.441000000
O    -0.907000000    -5.282000000    -7.075000000
H    -1.446000000    -6.072000000    -7.103000000
H    -0.906000000    -5.024000000    -6.154000000
O    -1.033000000    -7.744000000    -3.409000000
H    -1.948000000    -7.761000000    -3.128000000
H    -0.999000000    -7.058000000    -4.075000000
O     2.552000000    -7.388000000    -3.767000000
H     2.070000000    -6.796000000    -3.190000000
H     2.153000000    -8.245000000    -3.618000000
O    -5.154000000    -9.150000000     0.707000000
H    -5.288000000    -8.207000000     0.611000000
H    -5.638000000    -9.537000000    -0.023000000
O    -3.168000000    -5.755000000     1.653000000
H    -2.664000000    -5.720000000     0.840000000
H    -3.263000000    -4.839000000     1.915000000
O    -0.011000000   -10.218000000    -4.004000000
H     0.030000000   -10.580000000    -3.119000000
H    -0.187000000    -9.286000000    -3.874000000
O     1.556000000    -7.920000000     1.291000000
H     0.832000000    -7.592000000     0.758000000
H     1.158000000    -8.587000000     1.851000000
O    -2.967000000    -9.644000000    -1.543000000
H    -3.016000000    -8.916000000    -0.923000000
H    -3.865000000    -9.752000000    -1.857000000
O    -3.675000000    -3.233000000    -6.612000000
H    -4.198000000    -3.788000000    -7.190000000
H    -2.815000000    -3.193000000    -7.032000000
O    -6.673000000    -7.480000000    -3.230000000
H    -7.225000000    -7.358000000    -4.002000000
H    -6.227000000    -6.641000000    -3.119000000
O    -6.261000000    -6.457000000    -0.217000000
H    -6.612000000    -5.593000000    -0.430000000
H    -6.906000000    -7.071000000    -0.569000000
O    -3.139000000    -7.081000000     3.869000000
H    -3.232000000    -6.570000000     3.065000000
H    -3.290000000    -7.986000000     3.596000000
O    -4.575000000    -2.821000000    -4.011000000
H    -4.142000000    -2.901000000    -4.860000000
H    -3.894000000    -3.035000000    -3.373000000
O    -5.831000000    -4.999000000    -3.251000000
H    -5.289000000    -4.213000000    -3.183000000
H    -6.419000000    -4.821000000    -3.986000000
