201
-1263.66101
C    -2.786000000    -1.052000000     3.525000000
H    -3.293000000    -0.187000000     3.105000000
C    -1.474000000    -1.010000000     3.991000000
C    -0.811000000    -2.142000000     4.515000000
H     0.180000000    -2.160000000     4.960000000
C    -0.771000000     0.337000000     4.091000000
O    -1.605000000     1.485000000     4.232000000
H    -0.377000000     0.502000000     3.077000000
O     0.454000000     0.358000000     4.916000000
C     1.658000000     0.823000000     4.329000000
C     2.556000000    -0.174000000     3.946000000
H     2.469000000    -1.197000000     4.303000000
C     3.670000000     0.136000000     3.179000000
O     4.506000000    -0.846000000     2.710000000
C     3.921000000     1.462000000     2.818000000
C     5.037000000     1.890000000     1.851000000
H     5.330000000     2.936000000     1.964000000
C     4.625000000     1.737000000     0.414000000
C     4.030000000     2.813000000    -0.204000000
H     3.804000000     3.705000000     0.374000000
H     5.983000000     1.355000000     1.960000000
C     2.978000000     2.446000000     3.123000000
H     3.129000000     3.510000000     2.960000000
C     1.846000000     2.129000000     3.865000000
C     0.834000000     3.206000000     4.280000000
H     1.287000000     4.179000000     4.482000000
H     0.415000000     3.005000000     5.268000000
C    -0.269000000     3.383000000     3.304000000
C    -0.197000000     4.397000000     2.306000000
H     0.696000000     5.003000000     2.168000000
C    -1.399000000     2.552000000     3.356000000
C    -2.426000000     2.846000000     2.450000000
H    -3.295000000     2.205000000     2.579000000
C    -2.378000000     3.822000000     1.508000000
O    -3.400000000     3.901000000     0.576000000
C    -3.172000000     3.175000000    -0.677000000
C    -4.334000000     2.384000000    -1.142000000
C    -4.569000000     2.152000000    -2.507000000
H    -3.845000000     2.489000000    -3.245000000
C    -5.204000000     1.837000000    -0.221000000
H    -5.082000000     2.032000000     0.842000000
O    -2.713000000     4.132000000    -1.581000000
H    -2.315000000     2.505000000    -0.521000000
C    -1.261000000     4.677000000     1.461000000
C    -1.089000000     5.633000000     0.282000000
H    -0.547000000     6.530000000     0.591000000
H    -2.104000000     5.943000000     0.028000000
C    -0.490000000     4.838000000    -0.842000000
C     0.884000000     4.966000000    -1.172000000
H     1.467000000     5.516000000    -0.439000000
C    -1.332000000     4.216000000    -1.794000000
C    -0.812000000     3.575000000    -2.920000000
H    -1.415000000     3.169000000    -3.728000000
C     0.578000000     3.378000000    -2.943000000
O     0.990000000     2.530000000    -3.928000000
C     1.410000000     1.301000000    -3.365000000
C     0.943000000     0.091000000    -4.240000000
C    -0.244000000     0.124000000    -5.001000000
H    -0.747000000     1.081000000    -5.116000000
C     1.598000000    -1.145000000    -4.086000000
H     2.486000000    -1.166000000    -3.459000000
O     2.899000000     1.335000000    -3.330000000
H     1.103000000     1.059000000    -2.337000000
C     1.399000000     4.090000000    -2.090000000
C     2.900000000     3.989000000    -2.131000000
H     3.358000000     4.860000000    -1.656000000
H     3.182000000     4.163000000    -3.172000000
C     3.530000000     2.734000000    -1.520000000
C     3.504000000     1.519000000    -2.143000000
C     4.132000000     0.419000000    -1.556000000
H     4.167000000    -0.534000000    -2.079000000
C     4.668000000     0.508000000    -0.257000000
O     5.115000000    -0.559000000     0.412000000
C     4.194000000    -1.220000000     1.308000000
H     3.199000000    -0.783000000     1.135000000
C     4.195000000    -2.719000000     1.101000000
C     3.718000000    -3.582000000     2.082000000
H     3.247000000    -3.253000000     3.005000000
C     4.607000000    -3.204000000    -0.142000000
H     4.991000000    -2.521000000    -0.896000000
C     4.631000000    -4.552000000    -0.390000000
O     4.958000000    -5.061000000    -1.580000000
C     4.087000000    -5.366000000     0.531000000
H     3.953000000    -6.394000000     0.202000000
C     3.620000000    -4.968000000     1.766000000
O     2.905000000    -5.847000000     2.535000000
C     2.391000000    -5.511000000     3.799000000
C     1.020000000    -5.220000000     3.842000000
H     0.431000000    -5.241000000     2.929000000
C     3.160000000    -5.333000000     4.908000000
H     4.231000000    -5.506000000     4.832000000
C     2.549000000    -5.060000000     6.115000000
H     3.067000000    -4.944000000     7.063000000
C     1.193000000    -4.741000000     6.196000000
H     0.618000000    -4.548000000     7.098000000
C     0.453000000    -4.795000000     5.024000000
O    -0.843000000    -4.498000000     5.030000000
C    -1.439000000    -3.372000000     4.392000000
C    -2.693000000    -3.428000000     3.811000000
H    -3.293000000    -4.333000000     3.768000000
C    -3.418000000    -2.321000000     3.414000000
O    -4.759000000    -2.460000000     3.043000000
C    -5.670000000    -1.418000000     2.860000000
C    -6.061000000    -0.999000000     1.586000000
H    -5.639000000    -1.528000000     0.735000000
C    -6.198000000    -0.724000000     3.990000000
H    -5.888000000    -0.986000000     4.999000000
C    -7.047000000     0.380000000     3.825000000
H    -7.373000000     0.932000000     4.703000000
C    -7.409000000     0.784000000     2.507000000
H    -8.077000000     1.624000000     2.330000000
C    -6.907000000     0.116000000     1.412000000
O    -7.203000000     0.510000000     0.098000000
C    -6.322000000     1.095000000    -0.709000000
C    -6.469000000     0.764000000    -2.009000000
H    -7.296000000     0.134000000    -2.326000000
C    -5.567000000     1.259000000    -2.960000000
O    -5.884000000     0.918000000    -4.254000000
C    -4.893000000     0.999000000    -5.253000000
C    -3.918000000    -0.007000000    -5.315000000
H    -3.956000000    -0.780000000    -4.553000000
C    -4.828000000     2.124000000    -6.062000000
H    -5.602000000     2.882000000    -5.976000000
C    -3.877000000     2.186000000    -7.079000000
H    -3.816000000     3.066000000    -7.713000000
C    -3.003000000     1.074000000    -7.187000000
H    -2.179000000     1.140000000    -7.893000000
C    -2.938000000     0.025000000    -6.288000000
O    -1.867000000    -0.941000000    -6.391000000
C    -0.748000000    -0.997000000    -5.577000000
C    -0.060000000    -2.202000000    -5.492000000
H    -0.453000000    -3.075000000    -6.006000000
C     1.112000000    -2.280000000    -4.731000000
O     1.775000000    -3.442000000    -4.792000000
C     3.057000000    -3.710000000    -4.325000000
C     4.065000000    -3.432000000    -5.204000000
H     3.784000000    -3.136000000    -6.212000000
C     5.431000000    -3.650000000    -4.874000000
H     6.173000000    -3.486000000    -5.651000000
C     5.685000000    -4.073000000    -3.542000000
H     6.653000000    -4.380000000    -3.154000000
C     4.663000000    -4.322000000    -2.663000000
C     3.324000000    -4.168000000    -3.043000000
H     2.518000000    -4.421000000    -2.360000000
O     1.757000000    -7.287000000    -3.361000000
H     1.958000000    -6.942000000    -4.231000000
H     1.201000000    -6.618000000    -2.961000000
O    -1.798000000    -8.859000000    -4.859000000
H    -1.638000000    -9.764000000    -5.128000000
H    -1.790000000    -8.889000000    -3.902000000
O    -0.601000000    -6.387000000    -4.901000000
H    -0.937000000    -7.281000000    -4.965000000
H    -0.577000000    -6.207000000    -3.961000000
O     3.691000000    -8.985000000    -0.178000000
H     3.059000000    -8.969000000     0.541000000
H     4.472000000    -8.563000000     0.180000000
O    -2.212000000    -7.464000000    -2.006000000
H    -2.005000000    -7.998000000    -1.239000000
H    -1.522000000    -6.801000000    -2.029000000
O     3.655000000    -9.108000000    -4.085000000
H     4.442000000    -8.567000000    -4.154000000
H     2.958000000    -8.488000000    -3.868000000
O     0.860000000    -8.768000000     3.344000000
H     0.988000000    -8.343000000     2.495000000
H     1.011000000    -9.697000000     3.172000000
O    -5.206000000    -5.686000000     1.530000000
H    -6.072000000    -5.442000000     1.204000000
H    -4.595000000    -5.221000000     0.958000000
O    -1.801000000    -6.142000000     1.327000000
H    -1.096000000    -5.979000000     0.701000000
H    -2.509000000    -5.562000000     1.046000000
O     1.343000000    -9.492000000    -1.462000000
H     2.177000000    -9.183000000    -1.107000000
H     1.138000000    -8.873000000    -2.163000000
O    -1.978000000    -8.930000000     0.309000000
H    -1.640000000    -8.497000000     1.093000000
H    -2.670000000    -9.506000000     0.634000000
O     1.420000000    -7.593000000     1.118000000
H     0.812000000    -7.178000000     0.507000000
H     1.925000000    -6.867000000     1.483000000
O    -1.886000000   -10.451000000    -2.465000000
H    -1.950000000    -9.601000000    -2.031000000
H    -2.785000000   -10.656000000    -2.723000000
O    -2.154000000    -4.868000000    -6.751000000
H    -1.500000000    -5.373000000    -6.268000000
H    -1.672000000    -4.498000000    -7.491000000
O    -5.064000000    -7.073000000    -1.864000000
H    -4.124000000    -6.894000000    -1.851000000
H    -5.314000000    -6.979000000    -2.783000000
O    -3.218000000    -4.114000000     0.243000000
H    -2.490000000    -3.518000000     0.072000000
H    -3.767000000    -4.052000000    -0.539000000
O    -1.717000000    -7.910000000     3.424000000
H    -1.799000000    -7.184000000     2.805000000
H    -0.825000000    -8.234000000     3.296000000
O    -2.866000000    -4.762000000    -4.121000000
H    -2.813000000    -4.693000000    -5.074000000
H    -2.033000000    -5.157000000    -3.862000000
O    -4.682000000    -4.138000000    -2.038000000
H    -4.125000000    -4.300000000    -2.800000000
H    -5.393000000    -4.774000000    -2.122000000
