201
-1242.61093
C    -2.048000000    -1.283000000     4.879000000
H    -2.937000000    -0.797000000     4.486000000
C    -0.830000000    -0.700000000     4.735000000
C     0.301000000    -1.343000000     5.134000000
H     1.229000000    -0.778000000     5.168000000
C    -0.881000000     0.774000000     4.223000000
O    -2.050000000     1.515000000     4.405000000
H    -0.666000000     0.673000000     3.149000000
O     0.208000000     1.532000000     4.767000000
C     0.967000000     2.181000000     3.834000000
C     2.154000000     1.639000000     3.399000000
H     2.596000000     0.758000000     3.857000000
C     2.939000000     2.283000000     2.489000000
O     4.021000000     1.480000000     2.010000000
C     2.594000000     3.602000000     2.047000000
C     3.380000000     4.205000000     0.974000000
H     3.215000000     5.279000000     1.075000000
C     3.064000000     3.648000000    -0.431000000
C     2.120000000     4.255000000    -1.270000000
H     1.677000000     5.161000000    -0.864000000
H     4.457000000     4.092000000     1.115000000
C     1.362000000     4.082000000     2.476000000
H     1.066000000     5.120000000     2.351000000
C     0.532000000     3.430000000     3.386000000
C    -0.798000000     4.020000000     3.795000000
H    -0.863000000     5.107000000     3.710000000
H    -0.929000000     3.772000000     4.850000000
C    -1.956000000     3.462000000     3.005000000
C    -2.334000000     4.085000000     1.848000000
H    -1.973000000     5.053000000     1.509000000
C    -2.560000000     2.232000000     3.358000000
C    -3.405000000     1.585000000     2.418000000
H    -3.558000000     0.556000000     2.734000000
C    -3.772000000     2.288000000     1.235000000
O    -4.490000000     1.535000000     0.298000000
C    -3.832000000     0.997000000    -0.747000000
C    -4.214000000    -0.470000000    -0.914000000
C    -4.219000000    -1.125000000    -2.120000000
H    -3.921000000    -0.586000000    -3.015000000
C    -4.536000000    -1.253000000     0.242000000
H    -4.458000000    -0.769000000     1.212000000
O    -4.038000000     1.827000000    -1.882000000
H    -2.748000000     0.988000000    -0.561000000
C    -3.188000000     3.501000000     0.919000000
C    -3.454000000     4.224000000    -0.400000000
H    -3.461000000     5.313000000    -0.326000000
H    -4.513000000     3.975000000    -0.498000000
C    -2.640000000     3.746000000    -1.599000000
C    -1.475000000     4.389000000    -1.983000000
H    -1.142000000     5.263000000    -1.428000000
C    -3.028000000     2.625000000    -2.320000000
C    -2.225000000     2.104000000    -3.345000000
H    -2.419000000     1.120000000    -3.764000000
C    -1.204000000     2.850000000    -3.808000000
O    -0.341000000     2.221000000    -4.726000000
C     0.710000000     1.369000000    -4.170000000
C     0.844000000     0.081000000    -4.898000000
C    -0.302000000    -0.406000000    -5.556000000
H    -1.200000000     0.201000000    -5.637000000
C     1.982000000    -0.757000000    -4.740000000
H     2.802000000    -0.369000000    -4.142000000
O     1.947000000     2.118000000    -4.178000000
H     0.517000000     1.007000000    -3.149000000
C    -0.692000000     3.935000000    -3.051000000
C     0.651000000     4.570000000    -3.283000000
H     0.506000000     5.601000000    -2.953000000
H     0.925000000     4.537000000    -4.339000000
C     1.769000000     3.826000000    -2.540000000
C     2.283000000     2.613000000    -2.963000000
C     3.252000000     1.946000000    -2.209000000
H     3.741000000     1.061000000    -2.607000000
C     3.648000000     2.477000000    -0.955000000
O     4.477000000     1.658000000    -0.218000000
C     3.807000000     0.833000000     0.735000000
H     2.780000000     0.551000000     0.458000000
C     4.671000000    -0.427000000     0.777000000
C     4.689000000    -1.182000000     1.980000000
H     4.112000000    -0.892000000     2.854000000
C     5.151000000    -1.008000000    -0.402000000
H     5.198000000    -0.455000000    -1.337000000
C     5.713000000    -2.255000000    -0.399000000
O     6.120000000    -2.887000000    -1.524000000
C     5.796000000    -3.010000000     0.794000000
H     6.194000000    -4.018000000     0.712000000
C     5.244000000    -2.465000000     2.014000000
O     5.127000000    -3.306000000     3.093000000
C     4.574000000    -2.909000000     4.332000000
C     3.270000000    -3.395000000     4.599000000
H     2.676000000    -4.004000000     3.922000000
C     5.256000000    -2.127000000     5.248000000
H     6.179000000    -1.639000000     4.945000000
C     4.556000000    -1.608000000     6.382000000
H     5.064000000    -0.945000000     7.079000000
C     3.257000000    -2.041000000     6.646000000
H     2.716000000    -1.573000000     7.464000000
C     2.654000000    -2.974000000     5.805000000
O     1.314000000    -3.371000000     5.981000000
C     0.252000000    -2.648000000     5.581000000
C    -0.980000000    -3.245000000     5.761000000
H    -1.125000000    -4.273000000     6.083000000
C    -2.133000000    -2.562000000     5.362000000
O    -3.323000000    -3.253000000     5.394000000
C    -4.402000000    -2.962000000     4.624000000
C    -4.380000000    -3.081000000     3.258000000
H    -3.489000000    -3.396000000     2.721000000
C    -5.614000000    -2.530000000     5.230000000
H    -5.644000000    -2.430000000     6.312000000
C    -6.676000000    -2.187000000     4.511000000
H    -7.686000000    -2.039000000     4.886000000
C    -6.689000000    -2.389000000     3.151000000
H    -7.637000000    -2.188000000     2.657000000
C    -5.533000000    -2.854000000     2.501000000
O    -5.503000000    -3.262000000     1.236000000
C    -5.075000000    -2.546000000     0.159000000
C    -5.009000000    -3.166000000    -1.067000000
H    -5.234000000    -4.230000000    -1.084000000
C    -4.625000000    -2.463000000    -2.214000000
O    -4.710000000    -3.054000000    -3.434000000
C    -4.219000000    -2.493000000    -4.617000000
C    -2.929000000    -2.587000000    -5.054000000
H    -2.247000000    -3.209000000    -4.479000000
C    -5.187000000    -1.700000000    -5.315000000
H    -6.219000000    -1.693000000    -4.975000000
C    -4.835000000    -1.056000000    -6.528000000
H    -5.639000000    -0.593000000    -7.093000000
C    -3.534000000    -1.270000000    -6.955000000
H    -3.273000000    -0.778000000    -7.889000000
C    -2.573000000    -2.010000000    -6.283000000
O    -1.298000000    -2.195000000    -6.778000000
C    -0.278000000    -1.699000000    -6.028000000
C     0.813000000    -2.533000000    -5.826000000
H     0.786000000    -3.577000000    -6.127000000
C     1.960000000    -2.007000000    -5.206000000
O     3.029000000    -2.881000000    -5.161000000
C     4.176000000    -2.412000000    -4.579000000
C     5.106000000    -1.977000000    -5.485000000
H     4.893000000    -1.918000000    -6.550000000
C     6.358000000    -1.551000000    -5.001000000
H     7.207000000    -1.206000000    -5.586000000
C     6.688000000    -1.806000000    -3.669000000
H     7.702000000    -1.568000000    -3.357000000
C     5.779000000    -2.477000000    -2.814000000
C     4.478000000    -2.691000000    -3.244000000
H     3.678000000    -3.144000000    -2.664000000
O     4.683000000    -8.885000000    -4.750000000
H     4.478000000    -7.956000000    -4.644000000
H     4.257000000    -9.132000000    -5.571000000
O     6.072000000    -5.657000000    -3.175000000
H     5.516000000    -6.086000000    -2.524000000
H     6.061000000    -4.732000000    -2.928000000
O    -0.020000000    -5.346000000     3.058000000
H     0.431000000    -5.196000000     3.889000000
H    -0.922000000    -5.544000000     3.307000000
O     5.305000000    -9.041000000    -1.469000000
H     4.766000000    -8.269000000    -1.646000000
H     6.205000000    -8.717000000    -1.503000000
O     1.800000000    -6.616000000    -4.540000000
H     1.317000000    -6.463000000    -5.352000000
H     1.173000000    -6.412000000    -3.846000000
O     1.920000000    -9.748000000    -5.504000000
H     1.788000000    -9.853000000    -4.562000000
H     1.692000000   -10.601000000    -5.875000000
O    -0.211000000    -8.315000000    -0.254000000
H     0.562000000    -8.810000000    -0.523000000
H    -0.241000000    -7.572000000    -0.857000000
O    -2.856000000    -8.487000000    -1.104000000
H    -1.978000000    -8.580000000    -0.735000000
H    -2.784000000    -7.749000000    -1.710000000
O     2.210000000    -6.224000000     1.872000000
H     2.033000000    -6.216000000     0.931000000
H     1.357000000    -6.065000000     2.277000000
O    -2.104000000    -6.120000000    -2.110000000
H    -2.460000000    -5.964000000    -2.984000000
H    -1.157000000    -6.172000000    -2.242000000
O    -3.686000000    -7.457000000     2.176000000
H    -3.172000000    -7.045000000     2.870000000
H    -3.277000000    -7.156000000     1.364000000
O     4.341000000    -6.553000000    -1.268000000
H     4.771000000    -6.599000000    -0.414000000
H     3.458000000    -6.240000000    -1.075000000
O     3.089000000   -11.437000000    -1.951000000
H     2.810000000   -10.522000000    -1.920000000
H     3.893000000   -11.425000000    -2.470000000
O     4.403000000    -6.117000000    -5.475000000
H     3.548000000    -6.137000000    -5.044000000
H     4.854000000    -5.371000000    -5.079000000
O     2.239000000    -8.733000000    -1.645000000
H     2.290000000    -8.508000000    -2.574000000
H     2.311000000    -7.893000000    -1.192000000
O    -1.196000000    -3.829000000     1.089000000
H    -0.851000000    -3.235000000     0.423000000
H    -0.460000000    -3.980000000     1.681000000
O    -3.158000000    -6.850000000    -4.805000000
H    -2.709000000    -7.608000000    -4.431000000
H    -2.498000000    -6.427000000    -5.354000000
O    -3.100000000    -5.561000000     0.254000000
H    -2.502000000    -4.898000000     0.598000000
H    -2.864000000    -5.640000000    -0.670000000
O    -0.878000000    -8.687000000    -4.746000000
H    -0.053000000    -8.745000000    -5.227000000
H    -0.796000000    -9.339000000    -4.050000000
