201
-1224.97836
C    -1.246000000    -0.964000000     4.421000000
H    -2.181000000    -0.423000000     4.300000000
C    -0.041000000    -0.260000000     4.539000000
C     1.097000000    -0.903000000     5.140000000
H     2.032000000    -0.349000000     5.104000000
C     0.056000000     1.141000000     4.058000000
O    -1.224000000     1.736000000     4.260000000
H     0.080000000     1.056000000     2.961000000
O     1.181000000     1.923000000     4.517000000
C     1.820000000     2.551000000     3.509000000
C     2.978000000     1.929000000     2.991000000
H     3.265000000     0.973000000     3.422000000
C     3.649000000     2.512000000     1.932000000
O     4.740000000     1.860000000     1.390000000
C     3.133000000     3.715000000     1.365000000
C     3.718000000     4.303000000     0.063000000
H     3.614000000     5.378000000     0.225000000
C     3.198000000     3.750000000    -1.232000000
C     2.037000000     4.229000000    -1.765000000
H     1.568000000     5.097000000    -1.308000000
H     4.795000000     4.131000000     0.027000000
C     1.972000000     4.307000000     1.908000000
H     1.561000000     5.249000000     1.555000000
C     1.340000000     3.695000000     3.007000000
C     0.015000000     4.219000000     3.513000000
H    -0.109000000     5.304000000     3.498000000
H    -0.007000000     3.958000000     4.573000000
C    -1.188000000     3.619000000     2.797000000
C    -1.697000000     4.291000000     1.714000000
H    -1.299000000     5.191000000     1.252000000
C    -1.741000000     2.410000000     3.173000000
C    -2.894000000     1.880000000     2.546000000
H    -3.257000000     0.926000000     2.922000000
C    -3.504000000     2.512000000     1.549000000
O    -4.596000000     1.937000000     0.959000000
C    -4.347000000     1.065000000    -0.171000000
C    -5.138000000    -0.240000000    -0.146000000
C    -5.318000000    -1.031000000    -1.281000000
H    -4.855000000    -0.659000000    -2.192000000
C    -5.567000000    -0.753000000     1.073000000
H    -5.456000000    -0.202000000     2.003000000
O    -4.511000000     1.809000000    -1.385000000
H    -3.280000000     0.826000000    -0.052000000
C    -2.862000000     3.743000000     1.090000000
C    -3.414000000     4.330000000    -0.179000000
H    -3.165000000     5.390000000    -0.265000000
H    -4.488000000     4.142000000    -0.225000000
C    -2.855000000     3.632000000    -1.415000000
C    -1.677000000     4.216000000    -1.970000000
H    -1.109000000     4.974000000    -1.438000000
C    -3.410000000     2.386000000    -1.951000000
C    -2.870000000     1.881000000    -3.129000000
H    -3.242000000     0.978000000    -3.605000000
C    -1.720000000     2.465000000    -3.597000000
O    -1.031000000     1.724000000    -4.528000000
C     0.164000000     0.955000000    -4.096000000
C     0.187000000    -0.498000000    -4.637000000
C    -1.004000000    -1.067000000    -5.102000000
H    -1.959000000    -0.550000000    -5.141000000
C     1.271000000    -1.330000000    -4.542000000
H     2.201000000    -0.880000000    -4.203000000
O     1.359000000     1.706000000    -4.364000000
H     0.016000000     1.006000000    -3.007000000
C    -1.085000000     3.564000000    -3.075000000
C     0.243000000     4.224000000    -3.555000000
H     0.228000000     5.299000000    -3.364000000
H     0.278000000     4.145000000    -4.644000000
C     1.388000000     3.573000000    -2.866000000
C     1.947000000     2.352000000    -3.297000000
C     3.132000000     1.836000000    -2.776000000
H     3.593000000     0.958000000    -3.221000000
C     3.748000000     2.526000000    -1.742000000
O     4.806000000     1.836000000    -1.064000000
C     4.459000000     1.148000000     0.187000000
H     3.374000000     0.978000000     0.126000000
C     5.053000000    -0.237000000     0.213000000
C     5.026000000    -1.028000000     1.367000000
H     4.784000000    -0.553000000     2.314000000
C     5.346000000    -0.807000000    -1.001000000
H     5.310000000    -0.239000000    -1.927000000
C     5.682000000    -2.133000000    -1.121000000
O     6.255000000    -2.633000000    -2.301000000
C     5.885000000    -2.804000000     0.080000000
H     6.326000000    -3.798000000     0.085000000
C     5.460000000    -2.363000000     1.343000000
O     5.408000000    -3.219000000     2.436000000
C     5.034000000    -2.785000000     3.692000000
C     3.765000000    -2.998000000     4.163000000
H     2.983000000    -3.384000000     3.514000000
C     6.028000000    -2.260000000     4.526000000
H     7.016000000    -2.191000000     4.079000000
C     5.693000000    -1.885000000     5.802000000
H     6.513000000    -1.542000000     6.428000000
C     4.402000000    -2.130000000     6.320000000
H     4.273000000    -1.908000000     7.376000000
C     3.388000000    -2.634000000     5.495000000
O     2.192000000    -2.883000000     6.025000000
C     1.097000000    -2.210000000     5.497000000
C    -0.112000000    -2.913000000     5.461000000
H    -0.253000000    -3.954000000     5.742000000
C    -1.261000000    -2.255000000     4.926000000
O    -2.398000000    -2.976000000     4.944000000
C    -3.760000000    -2.516000000     4.869000000
C    -4.501000000    -2.762000000     3.701000000
H    -4.049000000    -3.381000000     2.930000000
C    -4.355000000    -1.819000000     5.909000000
H    -3.856000000    -1.838000000     6.875000000
C    -5.700000000    -1.438000000     5.744000000
H    -6.136000000    -0.775000000     6.488000000
C    -6.395000000    -1.645000000     4.530000000
H    -7.420000000    -1.302000000     4.422000000
C    -5.868000000    -2.361000000     3.490000000
O    -6.602000000    -2.619000000     2.361000000
C    -6.186000000    -2.031000000     1.130000000
C    -6.251000000    -2.803000000    -0.031000000
H    -6.733000000    -3.777000000    -0.072000000
C    -5.904000000    -2.278000000    -1.292000000
O    -6.005000000    -3.103000000    -2.357000000
C    -5.456000000    -2.884000000    -3.616000000
C    -4.149000000    -3.238000000    -3.881000000
H    -3.473000000    -3.835000000    -3.274000000
C    -6.178000000    -2.074000000    -4.629000000
H    -7.191000000    -1.719000000    -4.458000000
C    -5.592000000    -1.640000000    -5.804000000
H    -6.155000000    -0.993000000    -6.472000000
C    -4.327000000    -2.118000000    -6.115000000
H    -3.897000000    -1.783000000    -7.055000000
C    -3.609000000    -2.806000000    -5.104000000
O    -2.332000000    -3.149000000    -5.448000000
C    -1.153000000    -2.440000000    -5.356000000
C    -0.018000000    -3.209000000    -5.302000000
H    -0.094000000    -4.273000000    -5.511000000
C     1.202000000    -2.669000000    -4.864000000
O     2.286000000    -3.484000000    -4.872000000
C     3.609000000    -3.021000000    -4.786000000
C     4.272000000    -2.674000000    -5.971000000
H     3.705000000    -2.689000000    -6.898000000
C     5.572000000    -2.304000000    -5.933000000
H     6.166000000    -2.055000000    -6.808000000
C     6.216000000    -2.274000000    -4.679000000
H     7.269000000    -2.011000000    -4.612000000
C     5.532000000    -2.620000000    -3.487000000
C     4.167000000    -2.917000000    -3.579000000
H     3.561000000    -3.243000000    -2.738000000
O     1.968000000    -8.251000000     3.858000000
H     1.749000000    -7.428000000     3.420000000
H     2.559000000    -8.696000000     3.250000000
O     6.537000000    -7.614000000     0.531000000
H     6.509000000    -7.308000000     1.438000000
H     5.659000000    -7.440000000     0.192000000
O     2.516000000    -6.058000000    -3.619000000
H     2.849000000    -5.269000000    -4.047000000
H     2.182000000    -5.752000000    -2.776000000
O    -2.879000000    -6.478000000    -4.614000000
H    -2.028000000    -6.283000000    -4.222000000
H    -3.510000000    -6.311000000    -3.913000000
O    -3.217000000    -5.955000000     2.358000000
H    -3.654000000    -6.014000000     3.207000000
H    -2.342000000    -6.312000000     2.513000000
O     0.588000000    -7.944000000    -4.570000000
H     0.645000000    -8.828000000    -4.206000000
H     1.335000000    -7.480000000    -4.190000000
O     4.772000000    -5.989000000     2.022000000
H     4.115000000    -5.584000000     1.457000000
H     5.310000000    -5.258000000     2.326000000
O    -1.179000000    -6.738000000     4.705000000
H    -1.197000000    -6.430000000     5.612000000
H    -0.748000000    -6.033000000     4.222000000
O    -0.666000000    -3.911000000     1.662000000
H     0.072000000    -3.411000000     1.312000000
H    -1.103000000    -4.267000000     0.889000000
O     5.489000000    -9.286000000    -2.360000000
H     5.236000000    -8.644000000    -1.697000000
H     5.267000000    -8.870000000    -3.193000000
O     0.769000000    -7.691000000    -0.137000000
H     1.041000000    -6.807000000    -0.382000000
H     1.529000000    -8.059000000     0.315000000
O     4.632000000    -8.588000000     3.041000000
H     4.776000000    -7.911000000     2.380000000
H     4.739000000    -8.134000000     3.877000000
O     2.981000000    -9.562000000     0.354000000
H     3.637000000   -10.253000000     0.261000000
H     3.454000000    -8.755000000     0.151000000
O     5.319000000    -7.594000000    -4.523000000
H     6.129000000    -7.391000000    -4.991000000
H     4.636000000    -7.142000000    -5.019000000
O     3.865000000    -7.257000000    -0.640000000
H     3.432000000    -7.310000000    -1.492000000
H     3.476000000    -6.490000000    -0.220000000
O     1.038000000    -5.773000000     2.796000000
H     1.457000000    -5.729000000     1.936000000
H     0.391000000    -5.067000000     2.783000000
O    -2.297000000    -4.806000000    -0.763000000
H    -1.851000000    -5.132000000    -1.545000000
H    -3.061000000    -5.374000000    -0.669000000
O    -0.709000000    -9.711000000     0.653000000
H    -0.254000000    -8.912000000     0.388000000
H    -0.451000000   -10.362000000     0.000000000
O    -0.705000000    -5.883000000    -2.642000000
H    -0.025000000    -5.819000000    -1.972000000
H    -0.376000000    -6.540000000    -3.256000000
