201
-1247.35320
C    -1.450000000    -1.193000000     4.834000000
H    -2.280000000    -0.491000000     4.813000000
C    -0.265000000    -0.571000000     4.513000000
C     0.893000000    -1.355000000     4.545000000
H     1.857000000    -0.925000000     4.285000000
C    -0.240000000     0.841000000     4.176000000
O    -1.399000000     1.616000000     4.568000000
H    -0.191000000     0.757000000     3.080000000
O     0.901000000     1.559000000     4.627000000
C     1.638000000     2.279000000     3.689000000
C     2.745000000     1.655000000     3.145000000
H     3.066000000     0.733000000     3.623000000
C     3.464000000     2.290000000     2.178000000
O     4.462000000     1.606000000     1.637000000
C     2.995000000     3.552000000     1.649000000
C     3.711000000     4.158000000     0.486000000
H     3.736000000     5.245000000     0.578000000
C     3.283000000     3.648000000    -0.885000000
C     2.200000000     4.240000000    -1.574000000
H     1.678000000     5.076000000    -1.116000000
H     4.772000000     3.905000000     0.543000000
C     1.921000000     4.197000000     2.257000000
H     1.602000000     5.144000000     1.829000000
C     1.168000000     3.576000000     3.238000000
C    -0.117000000     4.193000000     3.778000000
H     0.017000000     5.268000000     3.645000000
H    -0.112000000     4.133000000     4.868000000
C    -1.329000000     3.561000000     3.061000000
C    -1.763000000     4.110000000     1.867000000
H    -1.288000000     5.047000000     1.587000000
C    -1.941000000     2.393000000     3.524000000
C    -3.027000000     1.843000000     2.877000000
H    -3.416000000     0.848000000     3.078000000
C    -3.495000000     2.429000000     1.690000000
O    -4.428000000     1.727000000     0.972000000
C    -3.961000000     0.978000000    -0.169000000
C    -4.690000000    -0.304000000    -0.376000000
C    -5.166000000    -0.714000000    -1.614000000
H    -4.973000000    -0.138000000    -2.515000000
C    -4.836000000    -1.135000000     0.708000000
H    -4.357000000    -0.773000000     1.614000000
O    -4.147000000     1.928000000    -1.347000000
H    -2.902000000     0.706000000    -0.053000000
C    -2.853000000     3.602000000     1.199000000
C    -3.478000000     4.325000000    -0.024000000
H    -3.309000000     5.404000000    -0.005000000
H    -4.523000000     4.051000000    -0.188000000
C    -2.753000000     3.787000000    -1.310000000
C    -1.537000000     4.383000000    -1.770000000
H    -1.070000000     5.233000000    -1.279000000
C    -3.126000000     2.575000000    -1.848000000
C    -2.508000000     2.065000000    -2.998000000
H    -2.954000000     1.172000000    -3.428000000
C    -1.348000000     2.667000000    -3.476000000
O    -0.665000000     2.117000000    -4.520000000
C     0.359000000     1.235000000    -4.139000000
C     0.186000000    -0.172000000    -4.697000000
C    -1.049000000    -0.813000000    -5.059000000
H    -1.976000000    -0.246000000    -5.029000000
C     1.298000000    -0.967000000    -4.689000000
H     2.282000000    -0.593000000    -4.418000000
O     1.669000000     1.850000000    -4.348000000
H     0.251000000     1.018000000    -3.066000000
C    -0.824000000     3.803000000    -2.832000000
C     0.480000000     4.396000000    -3.393000000
H     0.459000000     5.465000000    -3.168000000
H     0.656000000     4.207000000    -4.454000000
C     1.696000000     3.739000000    -2.761000000
C     2.244000000     2.578000000    -3.325000000
C     3.261000000     1.924000000    -2.609000000
H     3.795000000     1.136000000    -3.135000000
C     3.808000000     2.467000000    -1.435000000
O     4.725000000     1.713000000    -0.643000000
C     4.209000000     0.924000000     0.412000000
H     3.118000000     0.839000000     0.306000000
C     4.908000000    -0.365000000     0.371000000
C     5.305000000    -1.032000000     1.532000000
H     4.940000000    -0.682000000     2.495000000
C     5.313000000    -0.924000000    -0.787000000
H     5.057000000    -0.460000000    -1.736000000
C     6.007000000    -2.141000000    -0.895000000
O     6.257000000    -2.848000000    -2.039000000
C     6.292000000    -2.834000000     0.292000000
H     6.834000000    -3.773000000     0.214000000
C     5.904000000    -2.277000000     1.529000000
O     6.060000000    -3.030000000     2.698000000
C     5.310000000    -2.863000000     3.832000000
C     3.926000000    -3.199000000     3.711000000
H     3.446000000    -3.485000000     2.778000000
C     5.859000000    -2.350000000     4.997000000
H     6.899000000    -2.040000000     5.066000000
C     5.118000000    -2.272000000     6.128000000
H     5.592000000    -1.770000000     6.968000000
C     3.787000000    -2.643000000     6.104000000
H     3.148000000    -2.337000000     6.928000000
C     3.217000000    -3.155000000     4.902000000
O     1.879000000    -3.547000000     4.862000000
C     0.792000000    -2.714000000     4.828000000
C    -0.451000000    -3.313000000     5.089000000
H    -0.480000000    -4.330000000     5.470000000
C    -1.629000000    -2.554000000     5.083000000
O    -2.831000000    -3.033000000     5.470000000
C    -4.040000000    -2.696000000     4.873000000
C    -4.328000000    -2.957000000     3.548000000
H    -3.454000000    -3.295000000     2.998000000
C    -5.119000000    -2.346000000     5.746000000
H    -4.927000000    -2.223000000     6.809000000
C    -6.408000000    -2.308000000     5.226000000
H    -7.212000000    -1.929000000     5.851000000
C    -6.688000000    -2.481000000     3.884000000
H    -7.690000000    -2.273000000     3.519000000
C    -5.619000000    -2.858000000     3.020000000
O    -5.832000000    -3.147000000     1.703000000
C    -5.578000000    -2.344000000     0.593000000
C    -6.166000000    -2.673000000    -0.626000000
H    -6.814000000    -3.537000000    -0.754000000
C    -5.909000000    -1.882000000    -1.736000000
O    -6.294000000    -2.265000000    -3.030000000
C    -5.563000000    -1.965000000    -4.193000000
C    -4.217000000    -2.387000000    -4.358000000
H    -3.570000000    -2.874000000    -3.632000000
C    -6.176000000    -1.416000000    -5.281000000
H    -7.188000000    -1.029000000    -5.201000000
C    -5.550000000    -1.224000000    -6.533000000
H    -5.962000000    -0.652000000    -7.360000000
C    -4.186000000    -1.570000000    -6.637000000
H    -3.709000000    -1.325000000    -7.583000000
C    -3.529000000    -2.222000000    -5.589000000
O    -2.246000000    -2.822000000    -5.673000000
C    -1.107000000    -2.184000000    -5.321000000
C     0.035000000    -2.912000000    -5.223000000
H     0.030000000    -3.998000000    -5.241000000
C     1.202000000    -2.340000000    -4.863000000
O     2.270000000    -3.117000000    -4.644000000
C     3.559000000    -2.634000000    -4.532000000
C     4.229000000    -2.089000000    -5.657000000
H     3.717000000    -1.920000000    -6.601000000
C     5.579000000    -1.776000000    -5.460000000
H     6.148000000    -1.371000000    -6.292000000
C     6.216000000    -1.916000000    -4.232000000
H     7.287000000    -1.775000000    -4.105000000
C     5.557000000    -2.541000000    -3.192000000
C     4.194000000    -2.829000000    -3.357000000
H     3.680000000    -3.398000000    -2.587000000
O     8.037000000    -5.564000000    -1.186000000
H     7.666000000    -6.003000000    -1.951000000
H     7.306000000    -5.493000000    -0.572000000
O     2.331000000    -7.883000000     4.958000000
H     1.873000000    -7.262000000     4.392000000
H     3.073000000    -8.184000000     4.433000000
O     6.712000000    -6.324000000     1.455000000
H     5.774000000    -6.134000000     1.484000000
H     6.802000000    -7.153000000     1.926000000
O     1.954000000    -5.763000000    -3.750000000
H     2.410000000    -5.005000000    -4.116000000
H     1.711000000    -5.492000000    -2.865000000
O    -3.246000000    -6.063000000     3.465000000
H    -2.753000000    -6.818000000     3.786000000
H    -2.592000000    -5.370000000     3.375000000
O     0.049000000    -6.830000000    -5.335000000
H     0.715000000    -6.406000000    -4.792000000
H    -0.745000000    -6.805000000    -4.802000000
O     3.921000000    -6.637000000     1.387000000
H     3.136000000    -6.108000000     1.526000000
H     3.945000000    -6.787000000     0.442000000
O    -1.055000000    -7.754000000     4.451000000
H    -1.025000000    -7.997000000     5.376000000
H    -0.272000000    -7.220000000     4.319000000
O    -1.122000000    -3.932000000     2.201000000
H    -0.657000000    -3.100000000     2.291000000
H    -0.982000000    -4.187000000     1.288000000
O    -1.528000000    -9.210000000     2.154000000
H    -1.343000000    -8.751000000     2.973000000
H    -0.907000000    -8.840000000     1.527000000
O     0.837000000   -10.399000000    -0.920000000
H     0.878000000   -11.355000000    -0.963000000
H     1.713000000   -10.110000000    -1.176000000
O     1.600000000    -9.543000000    -4.666000000
H     2.329000000    -9.911000000    -4.167000000
H     1.273000000    -8.827000000    -4.120000000
O     4.097000000    -8.670000000     3.051000000
H     4.181000000    -8.030000000     2.344000000
H     4.970000000    -8.713000000     3.441000000
O     5.568000000    -8.931000000    -1.087000000
H     6.341000000    -9.492000000    -1.024000000
H     5.784000000    -8.165000000    -0.556000000
O     4.082000000    -6.276000000    -1.448000000
H     3.289000000    -5.836000000    -1.140000000
H     3.894000000    -6.499000000    -2.359000000
O     0.616000000    -6.105000000     3.202000000
H     1.141000000    -5.894000000     2.430000000
H     0.167000000    -5.287000000     3.417000000
O    -2.449000000    -6.872000000    -0.462000000
H    -2.870000000    -6.589000000     0.349000000
H    -1.794000000    -7.511000000    -0.182000000
O     0.243000000    -7.947000000     0.338000000
H     0.863000000    -7.220000000     0.293000000
H     0.702000000    -8.680000000    -0.071000000
O    -0.673000000    -5.959000000    -2.459000000
H     0.041000000    -5.622000000    -1.917000000
H    -1.206000000    -6.478000000    -1.857000000
