201
-1245.24490
C    -1.401000000    -2.142000000     4.629000000
H    -2.408000000    -1.797000000     4.412000000
C    -0.285000000    -1.267000000     4.593000000
C     1.017000000    -1.779000000     4.653000000
H     1.842000000    -1.090000000     4.494000000
C    -0.528000000     0.217000000     4.225000000
O    -1.799000000     0.692000000     4.575000000
H    -0.397000000     0.209000000     3.133000000
O     0.479000000     1.177000000     4.674000000
C     0.816000000     2.257000000     3.845000000
C     2.105000000     2.115000000     3.375000000
H     2.588000000     1.201000000     3.711000000
C     2.714000000     3.076000000     2.515000000
O     3.957000000     2.767000000     1.899000000
C     1.891000000     4.160000000     2.092000000
C     2.331000000     5.081000000     1.043000000
H     1.869000000     6.070000000     1.060000000
C     2.044000000     4.510000000    -0.322000000
C     0.862000000     4.796000000    -0.955000000
H     0.243000000     5.573000000    -0.515000000
H     3.404000000     5.266000000     1.120000000
C     0.562000000     4.315000000     2.574000000
H    -0.014000000     5.194000000     2.299000000
C     0.056000000     3.378000000     3.534000000
C    -1.326000000     3.549000000     4.073000000
H    -1.679000000     4.581000000     4.017000000
H    -1.339000000     3.154000000     5.091000000
C    -2.321000000     2.687000000     3.283000000
C    -2.896000000     3.212000000     2.136000000
H    -2.588000000     4.217000000     1.856000000
C    -2.547000000     1.336000000     3.660000000
C    -3.406000000     0.610000000     2.824000000
H    -3.473000000    -0.466000000     2.969000000
C    -4.063000000     1.164000000     1.765000000
O    -4.733000000     0.228000000     0.969000000
C    -4.165000000    -0.177000000    -0.325000000
C    -4.608000000    -1.574000000    -0.596000000
C    -4.902000000    -2.005000000    -1.922000000
H    -5.010000000    -1.308000000    -2.750000000
C    -4.458000000    -2.468000000     0.429000000
H    -4.377000000    -2.165000000     1.469000000
O    -4.642000000     0.765000000    -1.313000000
H    -3.069000000    -0.099000000    -0.280000000
C    -3.822000000     2.552000000     1.421000000
C    -4.490000000     3.185000000     0.181000000
H    -4.522000000     4.253000000     0.407000000
H    -5.521000000     2.880000000    -0.010000000
C    -3.726000000     2.943000000    -1.073000000
C    -2.827000000     3.938000000    -1.572000000
H    -2.769000000     4.920000000    -1.109000000
C    -3.811000000     1.750000000    -1.734000000
C    -2.970000000     1.497000000    -2.784000000
H    -3.273000000     0.630000000    -3.365000000
C    -2.080000000     2.403000000    -3.210000000
O    -1.218000000     1.990000000    -4.180000000
C     0.072000000     1.546000000    -3.744000000
C     0.555000000     0.199000000    -4.380000000
C    -0.376000000    -0.789000000    -4.773000000
H    -1.449000000    -0.687000000    -4.631000000
C     1.882000000    -0.131000000    -4.570000000
H     2.661000000     0.601000000    -4.373000000
O     1.035000000     2.616000000    -3.943000000
H     0.019000000     1.366000000    -2.660000000
C    -1.923000000     3.632000000    -2.594000000
C    -0.786000000     4.645000000    -2.904000000
H    -1.096000000     5.647000000    -2.601000000
H    -0.617000000     4.681000000    -3.983000000
C     0.481000000     4.262000000    -2.234000000
C     1.353000000     3.341000000    -2.836000000
C     2.615000000     3.176000000    -2.218000000
H     3.323000000     2.492000000    -2.680000000
C     2.980000000     3.748000000    -1.038000000
O     4.094000000     3.359000000    -0.394000000
C     3.881000000     2.268000000     0.485000000
H     2.835000000     1.964000000     0.336000000
C     4.791000000     1.074000000     0.372000000
C     4.830000000     0.080000000     1.327000000
H     4.185000000     0.140000000     2.200000000
C     5.677000000     0.998000000    -0.722000000
H     5.839000000     1.816000000    -1.419000000
C     6.405000000    -0.173000000    -0.974000000
O     7.136000000    -0.339000000    -2.120000000
C     6.350000000    -1.173000000    -0.018000000
H     6.999000000    -2.012000000    -0.258000000
C     5.688000000    -1.019000000     1.168000000
O     5.687000000    -2.045000000     2.102000000
C     5.099000000    -2.044000000     3.347000000
C     4.032000000    -2.825000000     3.679000000
H     3.635000000    -3.365000000     2.824000000
C     5.662000000    -1.322000000     4.392000000
H     6.498000000    -0.651000000     4.207000000
C     5.116000000    -1.262000000     5.647000000
H     5.570000000    -0.550000000     6.332000000
C     4.146000000    -2.163000000     5.956000000
H     3.735000000    -2.073000000     6.958000000
C     3.590000000    -3.014000000     4.974000000
O     2.434000000    -3.775000000     5.181000000
C     1.193000000    -3.146000000     5.045000000
C     0.076000000    -3.970000000     5.347000000
H     0.046000000    -5.029000000     5.588000000
C    -1.168000000    -3.501000000     5.004000000
O    -2.261000000    -4.363000000     5.256000000
C    -3.391000000    -4.236000000     4.529000000
C    -3.467000000    -4.518000000     3.190000000
H    -2.547000000    -4.767000000     2.668000000
C    -4.594000000    -4.015000000     5.241000000
H    -4.531000000    -3.882000000     6.318000000
C    -5.828000000    -3.997000000     4.578000000
H    -6.760000000    -3.847000000     5.117000000
C    -5.815000000    -4.188000000     3.174000000
H    -6.756000000    -4.155000000     2.630000000
C    -4.610000000    -4.529000000     2.506000000
O    -4.610000000    -4.796000000     1.159000000
C    -4.470000000    -3.859000000     0.214000000
C    -4.741000000    -4.289000000    -1.064000000
H    -4.748000000    -5.350000000    -1.300000000
C    -4.965000000    -3.424000000    -2.140000000
O    -5.011000000    -3.874000000    -3.431000000
C    -4.280000000    -3.286000000    -4.462000000
C    -2.900000000    -3.527000000    -4.628000000
H    -2.361000000    -4.082000000    -3.864000000
C    -4.941000000    -2.566000000    -5.480000000
H    -6.028000000    -2.543000000    -5.457000000
C    -4.185000000    -1.994000000    -6.550000000
H    -4.684000000    -1.364000000    -7.281000000
C    -2.792000000    -2.261000000    -6.605000000
H    -2.173000000    -1.778000000    -7.357000000
C    -2.176000000    -2.904000000    -5.582000000
O    -0.848000000    -3.017000000    -5.579000000
C     0.011000000    -1.969000000    -5.316000000
C     1.361000000    -2.270000000    -5.471000000
H     1.591000000    -3.264000000    -5.845000000
C     2.349000000    -1.356000000    -5.075000000
O     3.710000000    -1.713000000    -5.043000000
C     4.692000000    -0.761000000    -4.800000000
C     5.013000000     0.207000000    -5.792000000
H     4.454000000     0.305000000    -6.720000000
C     5.891000000     1.211000000    -5.322000000
H     6.188000000     2.037000000    -5.964000000
C     6.570000000     1.095000000    -4.087000000
H     7.216000000     1.908000000    -3.768000000
C     6.522000000    -0.055000000    -3.373000000
C     5.479000000    -0.973000000    -3.690000000
H     5.248000000    -1.762000000    -2.980000000
O     0.332000000   -10.375000000     2.206000000
H    -0.024000000   -10.582000000     3.070000000
H     0.836000000    -9.572000000     2.340000000
O     0.983000000    -6.129000000    -5.417000000
H     1.702000000    -5.784000000    -4.887000000
H     1.413000000    -6.516000000    -6.180000000
O     0.829000000   -11.193000000    -0.365000000
H     0.723000000   -10.378000000    -0.856000000
H     0.549000000   -10.975000000     0.524000000
O    -1.000000000    -6.119000000    -3.451000000
H    -0.699000000    -5.527000000    -2.761000000
H    -0.327000000    -6.059000000    -4.129000000
O     1.708000000    -7.112000000    -0.489000000
H     1.348000000    -6.426000000     0.074000000
H     1.045000000    -7.236000000    -1.168000000
O     0.263000000    -7.225000000     2.091000000
H     0.574000000    -6.350000000     1.859000000
H    -0.662000000    -7.100000000     2.307000000
O     2.956000000    -8.954000000    -2.841000000
H     2.057000000    -8.675000000    -2.663000000
H     3.159000000    -9.570000000    -2.137000000
O     3.422000000    -2.868000000    -2.056000000
H     2.947000000    -3.641000000    -2.360000000
H     2.860000000    -2.131000000    -2.294000000
O     2.138000000    -4.923000000    -3.175000000
H     2.841000000    -5.441000000    -2.782000000
H     1.476000000    -4.856000000    -2.487000000
O     4.215000000    -6.161000000    -1.767000000
H     4.497000000    -5.546000000    -1.090000000
H     3.473000000    -6.623000000    -1.378000000
O     5.474000000    -4.280000000    -0.249000000
H     4.896000000    -3.726000000    -0.774000000
H     5.548000000    -3.823000000     0.588000000
O    -1.951000000    -6.814000000    -0.457000000
H    -1.870000000    -7.374000000    -1.229000000
H    -1.163000000    -6.270000000    -0.473000000
O    -2.026000000    -7.561000000     3.739000000
H    -2.614000000    -7.210000000     4.408000000
H    -1.281000000    -7.905000000     4.231000000
O     3.298000000    -8.697000000     1.108000000
H     2.616000000    -8.258000000     0.599000000
H     3.456000000    -9.517000000     0.640000000
O    -4.886000000    -8.631000000    -1.094000000
H    -4.247000000    -8.455000000    -1.785000000
H    -4.455000000    -8.344000000    -0.289000000
O    -3.188000000    -8.032000000    -3.011000000
H    -3.406000000    -8.393000000    -3.871000000
H    -2.661000000    -7.257000000    -3.203000000
O     3.717000000    -6.178000000     2.084000000
H     3.655000000    -7.068000000     1.738000000
H     2.948000000    -5.730000000     1.730000000
O    -3.437000000    -8.269000000     1.280000000
H    -3.120000000    -8.219000000     2.182000000
H    -2.852000000    -7.693000000     0.788000000
O     0.142000000    -8.452000000    -2.370000000
H    -0.312000000    -9.260000000    -2.609000000
H    -0.336000000    -7.763000000    -2.831000000
