201
-1240.80362
C    -2.156000000    -2.101000000     4.193000000
H    -2.773000000    -2.205000000     3.303000000
C    -1.754000000    -0.840000000     4.589000000
C    -0.737000000    -0.824000000     5.534000000
H    -0.360000000     0.121000000     5.917000000
C    -2.124000000     0.401000000     3.853000000
O    -3.570000000     0.591000000     3.650000000
H    -1.690000000     0.351000000     2.843000000
O    -1.709000000     1.534000000     4.524000000
C    -0.993000000     2.489000000     3.826000000
C     0.395000000     2.355000000     3.670000000
H     0.870000000     1.456000000     4.053000000
C     1.131000000     3.218000000     2.903000000
O     2.451000000     2.930000000     2.769000000
C     0.466000000     4.240000000     2.170000000
C     1.180000000     5.274000000     1.371000000
H     0.572000000     6.180000000     1.342000000
C     1.358000000     4.752000000     0.017000000
C     0.458000000     5.041000000    -1.016000000
H    -0.367000000     5.713000000    -0.791000000
H     2.118000000     5.655000000     1.781000000
C    -0.927000000     4.327000000     2.234000000
H    -1.498000000     4.944000000     1.544000000
C    -1.649000000     3.517000000     3.134000000
C    -3.187000000     3.493000000     3.091000000
H    -3.509000000     4.500000000     2.815000000
H    -3.596000000     3.226000000     4.067000000
C    -3.765000000     2.418000000     2.107000000
C    -4.059000000     2.808000000     0.778000000
H    -4.021000000     3.879000000     0.595000000
C    -3.922000000     1.063000000     2.382000000
C    -4.536000000     0.139000000     1.508000000
H    -4.789000000    -0.850000000     1.883000000
C    -4.625000000     0.529000000     0.172000000
O    -4.934000000    -0.382000000    -0.742000000
C    -3.835000000    -0.796000000    -1.556000000
C    -3.759000000    -2.320000000    -1.826000000
C    -3.474000000    -2.812000000    -3.058000000
H    -3.470000000    -2.122000000    -3.898000000
C    -3.853000000    -3.190000000    -0.727000000
H    -3.983000000    -2.704000000     0.237000000
O    -3.933000000    -0.072000000    -2.875000000
H    -2.872000000    -0.482000000    -1.125000000
C    -4.404000000     1.915000000    -0.192000000
C    -4.802000000     2.361000000    -1.630000000
H    -5.150000000     3.394000000    -1.696000000
H    -5.654000000     1.872000000    -2.109000000
C    -3.534000000     2.282000000    -2.498000000
C    -2.644000000     3.404000000    -2.703000000
H    -2.885000000     4.299000000    -2.136000000
C    -3.159000000     1.062000000    -3.099000000
C    -2.014000000     1.059000000    -3.956000000
H    -1.816000000     0.111000000    -4.450000000
C    -1.138000000     2.119000000    -4.059000000
O    -0.001000000     1.809000000    -4.660000000
C     1.114000000     1.567000000    -3.805000000
C     1.874000000     0.401000000    -4.363000000
C     1.228000000    -0.645000000    -5.005000000
H     0.189000000    -0.524000000    -5.302000000
C     3.285000000     0.281000000    -4.108000000
H     3.845000000     1.089000000    -3.645000000
O     1.808000000     2.839000000    -3.670000000
H     0.701000000     1.315000000    -2.817000000
C    -1.422000000     3.294000000    -3.387000000
C    -0.491000000     4.422000000    -3.324000000
H    -1.154000000     5.272000000    -3.147000000
H     0.062000000     4.570000000    -4.254000000
C     0.557000000     4.333000000    -2.215000000
C     1.591000000     3.396000000    -2.475000000
C     2.514000000     3.152000000    -1.505000000
H     3.334000000     2.483000000    -1.752000000
C     2.416000000     3.847000000    -0.328000000
O     3.234000000     3.351000000     0.683000000
C     2.861000000     2.307000000     1.544000000
H     1.929000000     1.890000000     1.134000000
C     3.911000000     1.229000000     1.829000000
C     3.930000000     0.492000000     3.055000000
H     3.116000000     0.692000000     3.748000000
C     4.840000000     0.870000000     0.821000000
H     4.810000000     1.456000000    -0.095000000
C     5.792000000    -0.103000000     1.026000000
O     6.685000000    -0.519000000     0.010000000
C     5.906000000    -0.727000000     2.301000000
H     6.656000000    -1.494000000     2.474000000
C     4.939000000    -0.426000000     3.279000000
O     4.917000000    -1.093000000     4.498000000
C     4.039000000    -0.787000000     5.519000000
C     2.857000000    -1.461000000     5.714000000
H     2.712000000    -2.414000000     5.211000000
C     4.305000000     0.325000000     6.353000000
H     5.234000000     0.870000000     6.207000000
C     3.448000000     0.777000000     7.310000000
H     3.718000000     1.627000000     7.932000000
C     2.218000000     0.113000000     7.438000000
H     1.478000000     0.284000000     8.215000000
C     1.935000000    -1.058000000     6.684000000
O     0.840000000    -1.858000000     6.988000000
C    -0.170000000    -1.993000000     6.032000000
C    -0.627000000    -3.158000000     5.592000000
H    -0.162000000    -4.087000000     5.912000000
C    -1.643000000    -3.319000000     4.669000000
O    -1.961000000    -4.545000000     4.130000000
C    -3.132000000    -4.709000000     3.419000000
C    -3.027000000    -4.859000000     2.019000000
H    -2.014000000    -4.855000000     1.626000000
C    -4.383000000    -4.676000000     3.974000000
H    -4.453000000    -4.530000000     5.049000000
C    -5.567000000    -4.922000000     3.220000000
H    -6.525000000    -5.013000000     3.725000000
C    -5.388000000    -5.291000000     1.928000000
H    -6.257000000    -5.440000000     1.292000000
C    -4.152000000    -5.210000000     1.317000000
O    -4.115000000    -5.502000000     0.035000000
C    -3.741000000    -4.578000000    -0.910000000
C    -3.350000000    -5.017000000    -2.146000000
H    -3.250000000    -6.060000000    -2.433000000
C    -3.219000000    -4.174000000    -3.217000000
O    -2.682000000    -4.702000000    -4.327000000
C    -2.090000000    -4.013000000    -5.275000000
C    -0.770000000    -3.708000000    -5.192000000
H    -0.270000000    -4.219000000    -4.373000000
C    -2.863000000    -3.655000000    -6.397000000
H    -3.930000000    -3.863000000    -6.368000000
C    -2.269000000    -2.852000000    -7.368000000
H    -2.885000000    -2.476000000    -8.181000000
C    -0.827000000    -2.659000000    -7.321000000
H    -0.335000000    -2.196000000    -8.172000000
C    -0.095000000    -3.085000000    -6.225000000
O     1.257000000    -2.833000000    -6.161000000
C     1.876000000    -1.806000000    -5.432000000
C     3.281000000    -1.845000000    -5.352000000
H     3.884000000    -2.586000000    -5.872000000
C     3.992000000    -0.829000000    -4.659000000
O     5.375000000    -0.896000000    -4.607000000
C     6.140000000    -0.419000000    -3.538000000
C     7.113000000     0.509000000    -3.969000000
H     7.398000000     0.592000000    -5.015000000
C     7.981000000     1.136000000    -3.002000000
H     8.751000000     1.810000000    -3.368000000
C     7.764000000     0.793000000    -1.634000000
H     8.499000000     1.117000000    -0.902000000
C     6.657000000    -0.005000000    -1.226000000
C     5.927000000    -0.639000000    -2.203000000
H     5.173000000    -1.365000000    -1.910000000
O    -0.975000000    -7.143000000    -2.743000000
H    -0.950000000    -6.514000000    -2.022000000
H    -0.384000000    -7.844000000    -2.469000000
O     3.771000000    -5.754000000     0.844000000
H     4.117000000    -4.861000000     0.860000000
H     2.821000000    -5.642000000     0.857000000
O     1.964000000    -5.868000000    -5.370000000
H     1.689000000    -5.685000000    -6.268000000
H     1.626000000    -6.746000000    -5.191000000
O     4.798000000    -8.315000000    -0.006000000
H     4.364000000    -7.573000000     0.415000000
H     5.089000000    -8.866000000     0.721000000
O    -0.274000000    -6.557000000     5.753000000
H    -0.934000000    -7.022000000     5.239000000
H     0.232000000    -6.066000000     5.105000000
O     0.861000000    -8.444000000     1.798000000
H     1.006000000    -7.532000000     1.545000000
H     1.732000000    -8.840000000     1.774000000
O     1.809000000    -8.480000000    -4.661000000
H     1.272000000    -9.224000000    -4.389000000
H     2.433000000    -8.360000000    -3.946000000
O     3.018000000    -2.498000000    -1.152000000
H     2.600000000    -3.085000000    -1.783000000
H     2.292000000    -2.145000000    -0.637000000
O     0.699000000   -11.187000000    -0.110000000
H     1.630000000   -11.305000000     0.076000000
H     0.551000000   -10.247000000    -0.005000000
O     3.532000000    -8.648000000    -2.545000000
H     3.735000000    -9.578000000    -2.651000000
H     3.920000000    -8.413000000    -1.702000000
O     1.216000000    -8.417000000    -1.134000000
H     1.865000000    -8.341000000    -1.834000000
H     0.861000000    -7.534000000    -1.039000000
O    -2.144000000    -7.654000000     0.262000000
H    -1.471000000    -6.983000000     0.146000000
H    -2.955000000    -7.160000000     0.385000000
O     1.734000000    -5.494000000     3.730000000
H     1.483000000    -5.324000000     2.822000000
H     2.632000000    -5.821000000     3.673000000
O     4.255000000    -6.462000000     3.883000000
H     5.194000000    -6.555000000     4.046000000
H     4.161000000    -6.608000000     2.941000000
O     0.236000000   -10.236000000    -3.143000000
H     0.737000000   -10.300000000    -2.330000000
H    -0.635000000   -10.557000000    -2.913000000
O    -1.559000000    -9.239000000     2.267000000
H    -0.631000000    -9.029000000     2.163000000
H    -1.996000000    -8.746000000     1.573000000
O     2.584000000    -4.465000000    -3.090000000
H     2.514000000    -5.036000000    -3.855000000
H     2.076000000    -4.911000000    -2.412000000
O     5.367000000    -3.938000000    -2.663000000
H     4.414000000    -4.016000000    -2.696000000
H     5.556000000    -3.698000000    -1.756000000
O     5.277000000    -3.021000000     0.164000000
H     5.681000000    -2.155000000     0.227000000
H     4.391000000    -2.849000000    -0.154000000
