201
-1263.86361
C    -1.706000000    -2.312000000     3.907000000
H    -2.709000000    -2.377000000     3.493000000
C    -1.065000000    -1.099000000     4.239000000
C     0.270000000    -1.194000000     4.623000000
H     0.778000000    -0.280000000     4.919000000
C    -1.711000000     0.248000000     3.805000000
O    -3.129000000     0.204000000     3.774000000
H    -1.415000000     0.376000000     2.754000000
O    -1.206000000     1.443000000     4.527000000
C    -0.813000000     2.543000000     3.766000000
C     0.529000000     2.564000000     3.472000000
H     1.235000000     1.977000000     4.055000000
C     1.005000000     3.599000000     2.675000000
O     2.307000000     3.592000000     2.389000000
C     0.108000000     4.444000000     2.020000000
C     0.679000000     5.457000000     1.048000000
H    -0.006000000     6.306000000     1.006000000
C     0.839000000     4.845000000    -0.385000000
C    -0.220000000     4.799000000    -1.257000000
H    -1.178000000     5.259000000    -1.029000000
H     1.686000000     5.683000000     1.404000000
C    -1.296000000     4.337000000     2.304000000
H    -1.946000000     5.086000000     1.857000000
C    -1.796000000     3.329000000     3.179000000
C    -3.310000000     3.185000000     3.329000000
H    -3.841000000     4.105000000     3.076000000
H    -3.595000000     2.956000000     4.358000000
C    -3.872000000     2.092000000     2.381000000
C    -4.340000000     2.518000000     1.086000000
H    -4.310000000     3.556000000     0.767000000
C    -3.809000000     0.739000000     2.706000000
C    -4.415000000    -0.169000000     1.828000000
H    -4.322000000    -1.233000000     2.029000000
C    -4.855000000     0.193000000     0.582000000
O    -5.135000000    -0.814000000    -0.323000000
C    -4.157000000    -1.219000000    -1.295000000
C    -4.157000000    -2.719000000    -1.522000000
C    -3.679000000    -3.279000000    -2.698000000
H    -3.497000000    -2.610000000    -3.535000000
C    -4.451000000    -3.595000000    -0.438000000
H    -4.867000000    -3.259000000     0.508000000
O    -4.320000000    -0.453000000    -2.496000000
H    -3.154000000    -0.975000000    -0.915000000
C    -4.779000000     1.533000000     0.152000000
C    -5.160000000     2.000000000    -1.230000000
H    -5.441000000     3.053000000    -1.169000000
H    -5.962000000     1.402000000    -1.667000000
C    -3.928000000     1.901000000    -2.148000000
C    -3.205000000     3.078000000    -2.501000000
H    -3.427000000     3.988000000    -1.950000000
C    -3.620000000     0.670000000    -2.685000000
C    -2.511000000     0.618000000    -3.536000000
H    -2.160000000    -0.393000000    -3.728000000
C    -1.684000000     1.686000000    -3.760000000
O    -0.492000000     1.395000000    -4.379000000
C     0.773000000     1.455000000    -3.687000000
C     1.689000000     0.267000000    -4.036000000
C     1.102000000    -0.972000000    -4.192000000
H     0.034000000    -1.125000000    -4.061000000
C     3.053000000     0.408000000    -4.144000000
H     3.568000000     1.357000000    -4.017000000
O     1.364000000     2.754000000    -3.868000000
H     0.543000000     1.395000000    -2.613000000
C    -2.055000000     2.946000000    -3.274000000
C    -1.164000000     4.158000000    -3.446000000
H    -1.742000000     5.058000000    -3.227000000
H    -0.810000000     4.278000000    -4.472000000
C    -0.002000000     4.179000000    -2.500000000
C     1.203000000     3.519000000    -2.785000000
C     2.255000000     3.544000000    -1.832000000
H     3.144000000     2.929000000    -1.949000000
C     2.118000000     4.330000000    -0.711000000
O     3.034000000     4.144000000     0.234000000
C     2.886000000     3.039000000     1.130000000
H     2.184000000     2.346000000     0.644000000
C     4.208000000     2.335000000     1.443000000
C     4.409000000     1.678000000     2.649000000
H     3.697000000     1.845000000     3.453000000
C     5.090000000     2.164000000     0.376000000
H     4.918000000     2.546000000    -0.627000000
C     6.264000000     1.424000000     0.601000000
O     7.209000000     1.215000000    -0.410000000
C     6.540000000     0.895000000     1.901000000
H     7.352000000     0.245000000     2.218000000
C     5.608000000     1.113000000     2.924000000
O     5.890000000     0.595000000     4.162000000
C     4.860000000     0.187000000     4.955000000
C     4.066000000    -0.889000000     4.560000000
H     4.251000000    -1.542000000     3.711000000
C     4.654000000     0.790000000     6.206000000
H     5.305000000     1.543000000     6.644000000
C     3.628000000     0.317000000     7.027000000
H     3.461000000     0.811000000     7.981000000
C     2.794000000    -0.745000000     6.623000000
H     2.006000000    -1.121000000     7.269000000
C     3.029000000    -1.354000000     5.413000000
O     2.313000000    -2.507000000     5.061000000
C     0.994000000    -2.417000000     4.670000000
C     0.269000000    -3.632000000     4.465000000
H     0.678000000    -4.635000000     4.562000000
C    -1.099000000    -3.576000000     4.130000000
O    -1.779000000    -4.750000000     3.946000000
C    -3.079000000    -4.891000000     3.486000000
C    -3.308000000    -5.330000000     2.148000000
H    -2.445000000    -5.482000000     1.504000000
C    -4.151000000    -4.753000000     4.365000000
H    -3.850000000    -4.531000000     5.386000000
C    -5.440000000    -5.116000000     3.944000000
H    -6.242000000    -5.049000000     4.674000000
C    -5.662000000    -5.453000000     2.601000000
H    -6.713000000    -5.631000000     2.388000000
C    -4.623000000    -5.510000000     1.724000000
O    -4.831000000    -5.752000000     0.405000000
C    -4.396000000    -4.978000000    -0.630000000
C    -3.937000000    -5.527000000    -1.862000000
H    -3.921000000    -6.613000000    -1.907000000
C    -3.552000000    -4.636000000    -2.892000000
O    -3.165000000    -5.135000000    -4.111000000
C    -2.143000000    -4.545000000    -4.897000000
C    -0.908000000    -4.258000000    -4.343000000
H    -0.719000000    -4.548000000    -3.313000000
C    -2.417000000    -4.297000000    -6.221000000
H    -3.397000000    -4.472000000    -6.657000000
C    -1.452000000    -3.598000000    -6.919000000
H    -1.726000000    -3.351000000    -7.941000000
C    -0.207000000    -3.200000000    -6.343000000
H     0.547000000    -2.646000000    -6.898000000
C     0.072000000    -3.577000000    -5.037000000
O     1.281000000    -3.335000000    -4.400000000
C     1.885000000    -2.117000000    -4.292000000
C     3.273000000    -2.022000000    -4.432000000
H     3.866000000    -2.931000000    -4.489000000
C     3.853000000    -0.760000000    -4.328000000
O     5.277000000    -0.723000000    -4.433000000
C     6.025000000     0.247000000    -3.750000000
C     6.764000000     1.142000000    -4.497000000
H     6.802000000     1.112000000    -5.583000000
C     7.540000000     2.066000000    -3.896000000
H     8.113000000     2.802000000    -4.454000000
C     7.634000000     2.097000000    -2.546000000
H     8.340000000     2.822000000    -2.149000000
C     6.914000000     1.231000000    -1.735000000
C     6.042000000     0.310000000    -2.328000000
H     5.438000000    -0.404000000    -1.773000000
O    -1.349000000    -6.819000000    -0.999000000
H    -1.144000000    -6.986000000    -1.919000000
H    -0.664000000    -6.218000000    -0.706000000
O     3.577000000    -3.968000000    -1.914000000
H     2.755000000    -3.815000000    -2.380000000
H     3.756000000    -4.899000000    -2.046000000
O     4.196000000    -6.593000000     0.079000000
H     3.340000000    -6.167000000     0.032000000
H     4.529000000    -6.369000000     0.947000000
O     2.996000000    -5.242000000    -6.184000000
H     2.782000000    -4.368000000    -6.511000000
H     2.815000000    -5.198000000    -5.246000000
O     3.067000000    -5.484000000     3.366000000
H     2.660000000    -5.012000000     2.640000000
H     2.349000000    -5.974000000     3.766000000
O     5.865000000    -5.404000000     3.891000000
H     4.945000000    -5.357000000     3.630000000
H     6.304000000    -4.757000000     3.339000000
O     4.370000000    -6.959000000    -3.396000000
H     4.247000000    -7.846000000    -3.735000000
H     3.599000000    -6.802000000    -2.851000000
O     3.628000000    -9.055000000     3.941000000
H     3.984000000    -8.924000000     4.820000000
H     2.927000000    -8.407000000     3.867000000
O     6.193000000    -3.276000000    -2.157000000
H     5.330000000    -3.615000000    -1.918000000
H     6.113000000    -3.048000000    -3.083000000
O     2.737000000    -8.879000000    -0.269000000
H     2.816000000    -7.962000000    -0.531000000
H     3.577000000    -9.083000000     0.142000000
O    -0.318000000    -7.292000000    -3.501000000
H    -0.488000000    -8.130000000    -3.929000000
H     0.097000000    -6.757000000    -4.177000000
O    -2.299000000    -8.711000000     0.660000000
H    -2.047000000    -8.021000000     0.045000000
H    -2.066000000    -9.525000000     0.215000000
O     0.358000000    -6.903000000     1.915000000
H    -0.411000000    -7.140000000     1.395000000
H     0.721000000    -6.137000000     1.471000000
O     4.173000000    -3.794000000     1.036000000
H     4.114000000    -3.484000000     0.133000000
H     3.278000000    -4.049000000     1.260000000
O     1.268000000    -7.128000000     4.417000000
H     0.796000000    -6.953000000     3.603000000
H     0.771000000    -7.830000000     4.836000000
O     1.989000000    -6.508000000    -2.053000000
H     1.354000000    -7.179000000    -2.303000000
H     1.511000000    -5.938000000    -1.451000000
O     6.679000000    -3.321000000     2.338000000
H     7.146000000    -4.050000000     1.929000000
H     5.831000000    -3.301000000     1.894000000
O     4.069000000    -6.243000000     6.267000000
H     4.877000000    -6.681000000     5.999000000
H     3.732000000    -5.849000000     5.462000000
O     6.650000000    -7.872000000    -0.630000000
H     6.327000000    -8.236000000     0.194000000
H     6.188000000    -7.039000000    -0.721000000
