201
-1256.40567
C    -0.058000000     0.829000000     4.823000000
H    -1.136000000     0.897000000     4.699000000
C     0.754000000     1.850000000     4.392000000
C     2.076000000     1.757000000     4.723000000
H     2.826000000     2.382000000     4.245000000
C     0.248000000     2.819000000     3.286000000
O    -1.136000000     3.037000000     3.430000000
H     0.430000000     2.281000000     2.344000000
O     1.064000000     3.998000000     3.253000000
C     1.385000000     4.354000000     1.997000000
C     2.513000000     3.751000000     1.417000000
H     3.298000000     3.266000000     1.991000000
C     2.695000000     3.795000000     0.041000000
O     3.780000000     3.069000000    -0.424000000
C     1.856000000     4.513000000    -0.756000000
C     1.999000000     4.659000000    -2.302000000
H     1.570000000     5.593000000    -2.672000000
C     1.469000000     3.368000000    -2.963000000
C     0.155000000     3.331000000    -3.515000000
H    -0.320000000     4.303000000    -3.623000000
H     3.020000000     4.690000000    -2.687000000
C     0.740000000     5.137000000    -0.167000000
H    -0.011000000     5.634000000    -0.776000000
C     0.386000000     4.914000000     1.203000000
C    -1.076000000     5.222000000     1.630000000
H    -1.463000000     5.964000000     0.929000000
H    -1.072000000     5.656000000     2.632000000
C    -2.018000000     4.047000000     1.462000000
C    -2.916000000     3.992000000     0.329000000
H    -2.844000000     4.845000000    -0.340000000
C    -2.012000000     3.032000000     2.389000000
C    -2.999000000     2.022000000     2.293000000
H    -3.033000000     1.154000000     2.946000000
C    -3.876000000     1.969000000     1.238000000
O    -4.769000000     0.907000000     1.237000000
C    -4.458000000    -0.251000000     0.463000000
C    -4.664000000    -1.593000000     1.127000000
C    -4.685000000    -2.758000000     0.452000000
H    -4.709000000    -2.657000000    -0.630000000
C    -4.581000000    -1.556000000     2.549000000
H    -4.527000000    -0.616000000     3.091000000
O    -5.268000000    -0.093000000    -0.749000000
H    -3.393000000    -0.141000000     0.210000000
C    -3.895000000     2.954000000     0.263000000
C    -4.868000000     2.893000000    -0.886000000
H    -5.048000000     3.902000000    -1.263000000
H    -5.854000000     2.620000000    -0.505000000
C    -4.369000000     1.923000000    -1.921000000
C    -3.547000000     2.447000000    -2.914000000
H    -3.393000000     3.522000000    -2.946000000
C    -4.518000000     0.526000000    -1.792000000
C    -3.932000000    -0.372000000    -2.692000000
H    -3.994000000    -1.444000000    -2.523000000
C    -3.133000000     0.187000000    -3.731000000
O    -2.366000000    -0.714000000    -4.458000000
C    -0.975000000    -0.911000000    -3.995000000
C    -0.524000000    -2.320000000    -4.023000000
C    -1.444000000    -3.322000000    -3.765000000
H    -2.502000000    -3.173000000    -3.567000000
C     0.828000000    -2.713000000    -4.339000000
H     1.558000000    -1.989000000    -4.694000000
O    -0.004000000    -0.132000000    -4.698000000
H    -0.983000000    -0.584000000    -2.945000000
C    -2.903000000     1.561000000    -3.787000000
C    -1.880000000     2.225000000    -4.755000000
H    -2.191000000     3.239000000    -5.013000000
H    -1.837000000     1.669000000    -5.694000000
C    -0.400000000     2.212000000    -4.211000000
C     0.439000000     1.090000000    -4.235000000
C     1.714000000     1.072000000    -3.731000000
H     2.289000000     0.153000000    -3.667000000
C     2.186000000     2.172000000    -3.063000000
O     3.454000000     2.013000000    -2.431000000
C     3.569000000     1.818000000    -1.016000000
H     2.643000000     1.381000000    -0.616000000
C     4.717000000     0.842000000    -0.801000000
C     5.297000000     0.729000000     0.433000000
H     4.984000000     1.388000000     1.239000000
C     5.119000000    -0.026000000    -1.855000000
H     4.716000000     0.206000000    -2.837000000
C     6.063000000    -0.974000000    -1.615000000
O     6.475000000    -1.842000000    -2.575000000
C     6.658000000    -1.088000000    -0.353000000
H     7.462000000    -1.792000000    -0.152000000
C     6.247000000    -0.265000000     0.682000000
O     6.645000000    -0.510000000     2.015000000
C     6.356000000     0.333000000     3.055000000
C     5.237000000     0.079000000     3.850000000
H     4.726000000    -0.877000000     3.756000000
C     7.106000000     1.510000000     3.185000000
H     7.975000000     1.820000000     2.612000000
C     6.805000000     2.409000000     4.292000000
H     7.447000000     3.237000000     4.583000000
C     5.759000000     2.020000000     5.168000000
H     5.591000000     2.667000000     6.025000000
C     4.934000000     0.910000000     4.873000000
O     3.891000000     0.621000000     5.750000000
C     2.552000000     0.751000000     5.573000000
C     1.662000000    -0.116000000     6.197000000
H     2.013000000    -0.898000000     6.865000000
C     0.360000000    -0.172000000     5.739000000
O    -0.533000000    -0.908000000     6.477000000
C    -1.926000000    -0.928000000     6.316000000
C    -2.505000000    -1.993000000     5.592000000
H    -1.851000000    -2.749000000     5.163000000
C    -2.729000000     0.122000000     6.806000000
H    -2.301000000     0.986000000     7.307000000
C    -4.096000000     0.098000000     6.515000000
H    -4.699000000     0.960000000     6.788000000
C    -4.681000000    -0.927000000     5.754000000
H    -5.749000000    -0.985000000     5.558000000
C    -3.898000000    -2.000000000     5.334000000
O    -4.506000000    -2.875000000     4.535000000
C    -4.627000000    -2.809000000     3.175000000
C    -4.604000000    -4.023000000     2.418000000
H    -4.525000000    -4.961000000     2.962000000
C    -4.642000000    -3.983000000     1.080000000
O    -4.673000000    -5.170000000     0.496000000
C    -4.494000000    -5.524000000    -0.834000000
C    -3.242000000    -5.363000000    -1.524000000
H    -2.387000000    -5.005000000    -0.956000000
C    -5.493000000    -6.181000000    -1.504000000
H    -6.343000000    -6.547000000    -0.935000000
C    -5.304000000    -6.572000000    -2.805000000
H    -6.210000000    -6.988000000    -3.239000000
C    -4.163000000    -6.359000000    -3.507000000
H    -4.076000000    -6.612000000    -4.560000000
C    -3.071000000    -5.712000000    -2.872000000
O    -1.800000000    -5.694000000    -3.427000000
C    -0.937000000    -4.637000000    -3.559000000
C     0.410000000    -4.868000000    -3.609000000
H     0.600000000    -5.937000000    -3.559000000
C     1.308000000    -3.926000000    -4.029000000
O     2.654000000    -4.341000000    -4.198000000
C     3.698000000    -3.465000000    -4.379000000
C     4.050000000    -3.123000000    -5.669000000
H     3.526000000    -3.482000000    -6.551000000
C     5.143000000    -2.303000000    -5.966000000
H     5.568000000    -2.060000000    -6.936000000
C     5.914000000    -1.820000000    -4.858000000
H     6.791000000    -1.196000000    -5.009000000
C     5.593000000    -2.182000000    -3.572000000
C     4.439000000    -2.953000000    -3.272000000
H     4.222000000    -3.263000000    -2.253000000
O    -4.500000000    -8.220000000     1.477000000
H    -4.565000000    -8.144000000     2.429000000
H    -3.562000000    -8.164000000     1.297000000
O     1.439000000    -3.867000000     3.329000000
H     2.033000000    -4.482000000     2.899000000
H     0.664000000    -4.389000000     3.538000000
O     0.841000000    -7.839000000    -1.937000000
H     1.563000000    -8.072000000    -1.354000000
H     0.519000000    -7.003000000    -1.599000000
O    -1.153000000    -6.196000000     3.080000000
H    -1.087000000    -7.144000000     3.188000000
H    -1.068000000    -6.055000000     2.137000000
O     3.320000000    -5.436000000     2.088000000
H     3.016000000    -5.582000000     1.192000000
H     4.013000000    -4.781000000     2.002000000
O     0.913000000    -9.994000000     0.925000000
H    -0.012000000   -10.210000000     1.043000000
H     1.247000000   -10.676000000     0.342000000
O    -0.639000000    -8.863000000     3.670000000
H     0.148000000    -9.384000000     3.510000000
H    -1.228000000    -9.456000000     4.137000000
O     0.971000000    -7.144000000     5.547000000
H     1.910000000    -7.062000000     5.379000000
H     0.605000000    -7.450000000     4.718000000
O    -2.164000000    -9.377000000    -2.250000000
H    -2.227000000    -8.496000000    -1.880000000
H    -3.064000000    -9.704000000    -2.243000000
O    -2.184000000    -7.624000000     0.549000000
H    -1.576000000    -6.904000000     0.381000000
H    -1.647000000    -8.413000000     0.479000000
O     4.540000000    -3.014000000     2.102000000
H     3.831000000    -2.386000000     2.236000000
H     5.243000000    -2.500000000     1.704000000
O     2.919000000    -4.002000000     5.763000000
H     2.261000000    -3.994000000     6.458000000
H     2.453000000    -3.685000000     4.989000000
O     2.392000000    -7.866000000     0.558000000
H     1.691000000    -8.351000000     0.993000000
H     2.045000000    -6.979000000     0.461000000
O     3.255000000    -7.361000000     4.078000000
H     3.786000000    -7.062000000     4.816000000
H     3.384000000    -6.693000000     3.404000000
O     3.473000000    -5.796000000    -1.657000000
H     2.690000000    -5.854000000    -1.109000000
H     3.213000000    -5.235000000    -2.388000000
O     2.397000000    -1.380000000     2.569000000
H     1.902000000    -2.152000000     2.842000000
H     1.730000000    -0.717000000     2.392000000
O     0.363000000    -8.860000000    -4.465000000
H     0.617000000    -8.572000000    -3.589000000
H    -0.277000000    -9.555000000    -4.313000000
O     5.810000000    -5.463000000    -0.154000000
H     5.822000000    -6.420000000    -0.130000000
H     5.025000000    -5.246000000    -0.656000000
O    -2.753000000    -5.438000000     5.075000000
H    -2.343000000    -5.311000000     4.220000000
H    -3.523000000    -4.869000000     5.058000000
