201
-1223.02235
C    -0.622000000     1.044000000     4.609000000
H    -1.601000000     1.043000000     4.137000000
C     0.256000000     1.968000000     4.003000000
C     1.576000000     1.778000000     4.334000000
H     2.266000000     2.482000000     3.874000000
C    -0.190000000     2.959000000     2.958000000
O    -1.505000000     3.401000000     3.065000000
H    -0.118000000     2.362000000     2.037000000
O     0.708000000     3.977000000     2.769000000
C     1.157000000     4.247000000     1.507000000
C     2.369000000     3.721000000     1.136000000
H     2.911000000     3.226000000     1.937000000
C     2.740000000     3.716000000    -0.193000000
O     3.815000000     2.964000000    -0.545000000
C     1.931000000     4.369000000    -1.153000000
C     2.259000000     4.273000000    -2.629000000
H     1.840000000     5.060000000    -3.260000000
C     1.841000000     2.955000000    -3.253000000
C     0.561000000     2.925000000    -3.926000000
H    -0.082000000     3.800000000    -3.876000000
H     3.327000000     4.397000000    -2.820000000
C     0.693000000     4.844000000    -0.738000000
H     0.162000000     5.186000000    -1.623000000
C     0.286000000     4.863000000     0.596000000
C    -1.055000000     5.356000000     0.970000000
H    -1.315000000     6.175000000     0.296000000
H    -0.887000000     5.808000000     1.949000000
C    -2.150000000     4.256000000     0.921000000
C    -2.811000000     4.108000000    -0.290000000
H    -2.693000000     4.790000000    -1.128000000
C    -2.353000000     3.433000000     1.967000000
C    -3.280000000     2.455000000     1.886000000
H    -3.491000000     1.803000000     2.730000000
C    -3.914000000     2.271000000     0.692000000
O    -4.745000000     1.127000000     0.649000000
C    -4.258000000    -0.128000000     0.075000000
C    -4.652000000    -1.312000000     0.941000000
C    -4.733000000    -2.567000000     0.301000000
H    -4.593000000    -2.636000000    -0.774000000
C    -4.997000000    -1.202000000     2.277000000
H    -5.022000000    -0.281000000     2.854000000
O    -4.906000000    -0.174000000    -1.276000000
H    -3.167000000    -0.048000000    -0.039000000
C    -3.807000000     3.077000000    -0.413000000
C    -4.634000000     2.862000000    -1.652000000
H    -4.733000000     3.788000000    -2.223000000
H    -5.663000000     2.578000000    -1.421000000
C    -4.086000000     1.737000000    -2.517000000
C    -3.067000000     2.225000000    -3.416000000
H    -2.893000000     3.298000000    -3.428000000
C    -4.194000000     0.321000000    -2.317000000
C    -3.508000000    -0.577000000    -3.097000000
H    -3.635000000    -1.652000000    -2.997000000
C    -2.534000000    -0.071000000    -3.973000000
O    -1.794000000    -1.072000000    -4.515000000
C    -0.495000000    -1.293000000    -4.018000000
C    -0.060000000    -2.762000000    -3.889000000
C    -1.084000000    -3.715000000    -3.637000000
H    -2.137000000    -3.486000000    -3.487000000
C     1.297000000    -3.150000000    -3.630000000
H     2.022000000    -2.356000000    -3.791000000
O     0.348000000    -0.561000000    -4.948000000
H    -0.412000000    -0.723000000    -3.081000000
C    -2.286000000     1.277000000    -4.203000000
C    -1.238000000     1.751000000    -5.214000000
H    -1.400000000     2.779000000    -5.546000000
H    -1.126000000     1.120000000    -6.098000000
C     0.041000000     1.763000000    -4.461000000
C     0.842000000     0.651000000    -4.487000000
C     2.176000000     0.689000000    -4.025000000
H     2.873000000    -0.144000000    -4.055000000
C     2.596000000     1.768000000    -3.258000000
O     3.744000000     1.677000000    -2.551000000
C     3.735000000     1.610000000    -1.094000000
H     2.791000000     1.156000000    -0.761000000
C     4.871000000     0.760000000    -0.522000000
C     5.559000000     1.002000000     0.753000000
H     5.283000000     1.863000000     1.356000000
C     5.270000000    -0.390000000    -1.171000000
H     4.787000000    -0.701000000    -2.094000000
C     6.228000000    -1.249000000    -0.659000000
O     6.689000000    -2.363000000    -1.378000000
C     6.788000000    -1.034000000     0.601000000
H     7.604000000    -1.649000000     0.971000000
C     6.377000000     0.013000000     1.362000000
O     6.807000000     0.146000000     2.659000000
C     6.130000000     0.942000000     3.517000000
C     5.054000000     0.408000000     4.217000000
H     4.779000000    -0.633000000     4.067000000
C     6.601000000     2.224000000     3.753000000
H     7.483000000     2.663000000     3.293000000
C     6.051000000     3.026000000     4.684000000
H     6.291000000     4.077000000     4.826000000
C     4.888000000     2.533000000     5.363000000
H     4.310000000     3.130000000     6.063000000
C     4.430000000     1.293000000     5.123000000
O     3.308000000     0.765000000     5.774000000
C     1.991000000     0.950000000     5.366000000
C     1.053000000     0.156000000     6.000000000
H     1.437000000    -0.562000000     6.721000000
C    -0.240000000     0.156000000     5.582000000
O    -1.109000000    -0.813000000     5.989000000
C    -2.469000000    -0.742000000     6.021000000
C    -3.269000000    -1.632000000     5.260000000
H    -2.825000000    -2.379000000     4.606000000
C    -3.160000000     0.144000000     6.838000000
H    -2.515000000     0.754000000     7.466000000
C    -4.523000000     0.171000000     6.927000000
H    -5.010000000     0.901000000     7.569000000
C    -5.319000000    -0.669000000     6.157000000
H    -6.402000000    -0.603000000     6.226000000
C    -4.663000000    -1.513000000     5.248000000
O    -5.379000000    -2.338000000     4.413000000
C    -5.182000000    -2.391000000     3.029000000
C    -5.342000000    -3.579000000     2.414000000
H    -5.442000000    -4.390000000     3.130000000
C    -5.042000000    -3.736000000     1.060000000
O    -4.945000000    -4.956000000     0.470000000
C    -4.613000000    -5.261000000    -0.807000000
C    -3.309000000    -5.489000000    -1.119000000
H    -2.543000000    -5.445000000    -0.349000000
C    -5.580000000    -5.121000000    -1.819000000
H    -6.616000000    -4.916000000    -1.564000000
C    -5.187000000    -5.218000000    -3.172000000
H    -5.916000000    -5.079000000    -3.966000000
C    -3.873000000    -5.530000000    -3.451000000
H    -3.557000000    -5.664000000    -4.483000000
C    -2.884000000    -5.578000000    -2.444000000
O    -1.633000000    -5.887000000    -2.821000000
C    -0.712000000    -4.983000000    -3.239000000
C     0.666000000    -5.362000000    -3.187000000
H     0.756000000    -6.398000000    -2.871000000
C     1.688000000    -4.442000000    -3.305000000
O     2.991000000    -4.874000000    -3.228000000
C     4.099000000    -4.090000000    -3.298000000
C     4.585000000    -3.882000000    -4.560000000
H     3.999000000    -4.179000000    -5.426000000
C     5.819000000    -3.220000000    -4.774000000
H     6.133000000    -3.042000000    -5.799000000
C     6.508000000    -2.733000000    -3.679000000
H     7.505000000    -2.305000000    -3.738000000
C     6.005000000    -2.934000000    -2.362000000
C     4.805000000    -3.605000000    -2.160000000
H     4.417000000    -3.852000000    -1.175000000
O    -1.452000000    -4.973000000     4.181000000
H    -1.241000000    -5.853000000     4.495000000
H    -0.711000000    -4.733000000     3.626000000
O     4.214000000    -5.168000000     0.851000000
H     3.264000000    -5.111000000     0.749000000
H     4.390000000    -4.738000000     1.688000000
O     3.312000000    -9.775000000    -1.812000000
H     3.381000000    -9.566000000    -2.744000000
H     3.020000000    -8.959000000    -1.405000000
O    -1.077000000    -8.758000000    -2.346000000
H    -1.478000000    -8.337000000    -1.586000000
H    -0.826000000    -9.628000000    -2.034000000
O    -4.214000000    -4.940000000     5.650000000
H    -4.651000000    -4.089000000     5.696000000
H    -3.389000000    -4.762000000     5.198000000
O     4.714000000    -6.831000000     5.528000000
H     3.844000000    -6.581000000     5.217000000
H     4.586000000    -7.687000000     5.935000000
O     2.585000000   -10.999000000     1.113000000
H     3.522000000   -11.182000000     1.186000000
H     2.541000000   -10.099000000     0.791000000
O     4.057000000    -8.659000000     1.645000000
H     4.131000000    -8.592000000     0.693000000
H     3.571000000    -7.876000000     1.903000000
O    -0.998000000    -8.576000000     2.410000000
H    -1.944000000    -8.642000000     2.276000000
H    -0.723000000    -7.866000000     1.829000000
O    -0.157000000    -6.984000000     0.152000000
H     0.340000000    -6.191000000     0.353000000
H     0.412000000    -7.480000000    -0.438000000
O     4.521000000    -3.684000000     3.402000000
H     4.258000000    -3.012000000     2.773000000
H     3.945000000    -3.545000000     4.154000000
O     2.021000000    -6.578000000     5.752000000
H     2.413000000    -6.811000000     6.593000000
H     1.084000000    -6.511000000     5.935000000
O     2.555000000    -7.180000000    -1.199000000
H     2.381000000    -6.717000000    -0.379000000
H     2.830000000    -6.495000000    -1.807000000
O     0.615000000    -9.920000000     4.119000000
H     1.532000000    -9.942000000     3.845000000
H     0.199000000    -9.307000000     3.513000000
O     1.540000000    -3.948000000     4.657000000
H     1.435000000    -4.255000000     3.756000000
H     1.943000000    -4.685000000     5.116000000
O     3.614000000    -1.710000000     1.720000000
H     4.140000000    -0.919000000     1.843000000
H     2.713000000    -1.392000000     1.664000000
O     6.037000000    -6.562000000    -0.618000000
H     5.812000000    -7.491000000    -0.651000000
H     5.495000000    -6.208000000     0.088000000
O     2.216000000    -6.956000000     2.609000000
H     1.674000000    -6.312000000     2.153000000
H     2.001000000    -6.838000000     3.534000000
O    -0.297000000    -3.639000000     6.886000000
H    -1.101000000    -3.119000000     6.869000000
H     0.317000000    -3.147000000     6.341000000
