201
-1250.71759
C    -2.309000000     1.872000000     4.595000000
H    -3.247000000     1.802000000     4.051000000
C    -1.278000000     2.514000000     3.938000000
C     0.013000000     2.369000000     4.469000000
H     0.824000000     2.709000000     3.829000000
C    -1.390000000     3.145000000     2.576000000
O    -2.753000000     3.498000000     2.363000000
H    -1.208000000     2.322000000     1.869000000
O    -0.439000000     4.237000000     2.410000000
C     0.211000000     4.420000000     1.195000000
C     1.592000000     4.092000000     1.177000000
H     2.106000000     3.860000000     2.107000000
C     2.246000000     4.109000000    -0.072000000
O     3.573000000     3.676000000    -0.188000000
C     1.522000000     4.351000000    -1.205000000
C     2.231000000     4.311000000    -2.540000000
H     1.826000000     5.094000000    -3.185000000
C     2.165000000     2.938000000    -3.152000000
C     1.094000000     2.574000000    -3.920000000
H     0.253000000     3.197000000    -4.214000000
H     3.292000000     4.563000000    -2.482000000
C     0.143000000     4.776000000    -1.135000000
H    -0.377000000     5.149000000    -2.014000000
C    -0.496000000     4.800000000     0.059000000
C    -1.921000000     5.115000000     0.158000000
H    -2.175000000     5.958000000    -0.488000000
H    -2.053000000     5.651000000     1.100000000
C    -2.836000000     3.920000000     0.009000000
C    -3.388000000     3.625000000    -1.236000000
H    -3.053000000     4.168000000    -2.116000000
C    -3.230000000     3.170000000     1.138000000
C    -4.001000000     2.055000000     0.998000000
H    -4.170000000     1.278000000     1.740000000
C    -4.444000000     1.667000000    -0.259000000
O    -5.045000000     0.431000000    -0.319000000
C    -4.225000000    -0.688000000    -0.688000000
C    -4.314000000    -2.042000000     0.189000000
C    -4.009000000    -3.269000000    -0.367000000
H    -3.728000000    -3.352000000    -1.414000000
C    -4.596000000    -1.965000000     1.577000000
H    -4.801000000    -0.967000000     1.955000000
O    -4.484000000    -0.891000000    -2.048000000
H    -3.178000000    -0.350000000    -0.664000000
C    -4.111000000     2.475000000    -1.397000000
C    -4.379000000     1.976000000    -2.803000000
H    -4.548000000     2.829000000    -3.464000000
H    -5.300000000     1.391000000    -2.764000000
C    -3.362000000     0.923000000    -3.254000000
C    -2.346000000     1.329000000    -4.083000000
H    -2.344000000     2.315000000    -4.540000000
C    -3.554000000    -0.464000000    -2.983000000
C    -2.512000000    -1.320000000    -3.347000000
H    -2.483000000    -2.310000000    -2.899000000
C    -1.408000000    -0.872000000    -4.088000000
O    -0.359000000    -1.742000000    -4.452000000
C     0.881000000    -1.716000000    -3.717000000
C     1.322000000    -3.085000000    -3.339000000
C     0.440000000    -4.236000000    -3.265000000
H    -0.617000000    -4.074000000    -3.460000000
C     2.614000000    -3.247000000    -2.889000000
H     3.234000000    -2.356000000    -2.932000000
O     1.891000000    -0.965000000    -4.399000000
H     0.662000000    -1.166000000    -2.790000000
C    -1.307000000     0.510000000    -4.450000000
C    -0.188000000     0.924000000    -5.361000000
H    -0.423000000     1.825000000    -5.931000000
H     0.074000000     0.157000000    -6.093000000
C     1.063000000     1.358000000    -4.548000000
C     2.031000000     0.377000000    -4.185000000
C     3.132000000     0.751000000    -3.427000000
H     3.912000000     0.079000000    -3.078000000
C     3.252000000     2.033000000    -2.915000000
O     4.242000000     2.282000000    -1.951000000
C     3.723000000     2.288000000    -0.593000000
H     2.721000000     1.835000000    -0.619000000
C     4.630000000     1.398000000     0.236000000
C     4.728000000     1.625000000     1.595000000
H     4.034000000     2.341000000     2.029000000
C     5.323000000     0.266000000    -0.257000000
H     5.289000000     0.129000000    -1.334000000
C     6.190000000    -0.410000000     0.542000000
O     7.014000000    -1.395000000     0.045000000
C     6.270000000    -0.162000000     1.909000000
H     6.895000000    -0.778000000     2.551000000
C     5.512000000     0.862000000     2.403000000
O     5.648000000     1.072000000     3.704000000
C     4.750000000     1.922000000     4.454000000
C     3.538000000     1.425000000     4.964000000
H     3.326000000     0.361000000     4.896000000
C     5.062000000     3.274000000     4.716000000
H     5.977000000     3.664000000     4.277000000
C     4.211000000     4.067000000     5.469000000
H     4.576000000     5.055000000     5.735000000
C     3.051000000     3.528000000     6.022000000
H     2.459000000     4.151000000     6.688000000
C     2.639000000     2.257000000     5.674000000
O     1.549000000     1.723000000     6.261000000
C     0.260000000     1.821000000     5.757000000
C    -0.826000000     1.369000000     6.516000000
H    -0.654000000     0.933000000     7.496000000
C    -2.051000000     1.263000000     5.830000000
O    -3.105000000     0.610000000     6.456000000
C    -4.155000000     0.039000000     5.757000000
C    -3.945000000    -1.058000000     4.985000000
H    -2.953000000    -1.497000000     4.914000000
C    -5.381000000     0.667000000     5.861000000
H    -5.390000000     1.608000000     6.404000000
C    -6.508000000     0.027000000     5.286000000
H    -7.486000000     0.501000000     5.270000000
C    -6.336000000    -1.235000000     4.657000000
H    -7.188000000    -1.679000000     4.148000000
C    -5.046000000    -1.718000000     4.438000000
O    -4.964000000    -2.965000000     3.736000000
C    -4.680000000    -3.064000000     2.383000000
C    -4.405000000    -4.310000000     1.835000000
H    -4.339000000    -5.268000000     2.345000000
C    -4.098000000    -4.427000000     0.450000000
O    -3.716000000    -5.713000000     0.047000000
C    -3.233000000    -6.001000000    -1.207000000
C    -1.857000000    -6.112000000    -1.384000000
H    -1.171000000    -6.003000000    -0.548000000
C    -4.076000000    -6.105000000    -2.304000000
H    -5.150000000    -5.938000000    -2.300000000
C    -3.561000000    -6.402000000    -3.545000000
H    -4.237000000    -6.400000000    -4.396000000
C    -2.195000000    -6.615000000    -3.706000000
H    -1.761000000    -6.927000000    -4.653000000
C    -1.317000000    -6.461000000    -2.650000000
O     0.025000000    -6.597000000    -2.791000000
C     0.952000000    -5.539000000    -2.912000000
C     2.262000000    -5.635000000    -2.554000000
H     2.625000000    -6.564000000    -2.122000000
C     3.065000000    -4.485000000    -2.498000000
O     4.391000000    -4.662000000    -2.299000000
C     5.332000000    -3.675000000    -2.298000000
C     5.896000000    -3.247000000    -3.463000000
H     5.602000000    -3.710000000    -4.402000000
C     6.865000000    -2.246000000    -3.497000000
H     7.072000000    -1.888000000    -4.502000000
C     7.250000000    -1.640000000    -2.278000000
H     8.044000000    -0.898000000    -2.301000000
C     6.672000000    -2.044000000    -1.103000000
C     5.715000000    -3.086000000    -1.078000000
H     5.145000000    -3.373000000    -0.198000000
O     1.641000000    -9.808000000     3.279000000
H     1.187000000    -9.014000000     2.998000000
H     0.938000000   -10.408000000     3.531000000
O    -1.488000000    -5.207000000     2.983000000
H    -0.792000000    -5.262000000     2.328000000
H    -1.638000000    -4.268000000     3.094000000
O     6.485000000    -6.603000000     4.282000000
H     6.183000000    -6.093000000     3.531000000
H     7.294000000    -6.169000000     4.555000000
O    -1.420000000    -3.268000000     5.741000000
H    -0.813000000    -3.535000000     5.051000000
H    -2.136000000    -3.902000000     5.689000000
O     4.928000000    -3.985000000     2.453000000
H     4.612000000    -3.388000000     3.132000000
H     4.157000000    -4.167000000     1.917000000
O     4.031000000    -8.505000000    -1.032000000
H     3.617000000    -8.311000000    -0.191000000
H     3.333000000    -8.895000000    -1.558000000
O    -1.357000000    -9.952000000     2.050000000
H    -0.586000000    -9.451000000     1.783000000
H    -1.845000000    -9.355000000     2.618000000
O     1.052000000    -7.920000000     0.440000000
H     1.951000000    -7.861000000     0.763000000
H     0.642000000    -7.103000000     0.723000000
O     4.012000000    -7.688000000     5.165000000
H     3.458000000    -6.935000000     4.961000000
H     4.904000000    -7.340000000     5.148000000
O     3.695000000    -3.177000000     4.998000000
H     3.122000000    -2.672000000     5.575000000
H     4.315000000    -3.604000000     5.590000000
O     7.238000000    -5.023000000     1.461000000
H     6.481000000    -4.539000000     1.790000000
H     6.896000000    -5.530000000     0.724000000
O     3.697000000    -7.007000000     1.083000000
H     3.846000000    -7.488000000     1.897000000
H     3.231000000    -6.216000000     1.354000000
O    -0.230000000    -7.728000000     3.382000000
H    -1.058000000    -7.307000000     3.154000000
H     0.230000000    -7.079000000     3.915000000
O    -1.601000000    -2.482000000     2.697000000
H    -1.697000000    -1.653000000     2.230000000
H    -0.819000000    -2.365000000     3.236000000
O    -2.659000000    -5.763000000     5.305000000
H    -2.392000000    -5.654000000     4.393000000
H    -2.923000000    -6.681000000     5.370000000
O     6.037000000    -6.451000000    -0.511000000
H     5.380000000    -6.411000000    -1.206000000
H     5.551000000    -6.742000000     0.261000000
O     2.465000000    -5.596000000     4.466000000
H     2.246000000    -5.553000000     3.535000000
H     2.826000000    -4.733000000     4.667000000
O     0.959000000    -2.467000000     3.896000000
H     1.713000000    -2.278000000     3.337000000
H     1.097000000    -1.930000000     4.676000000
O    -0.148000000    -9.497000000    -1.385000000
H     0.295000000    -8.791000000    -0.914000000
H    -1.079000000    -9.342000000    -1.227000000
