201
-1224.28504
C    -2.909000000    -1.169000000    -4.591000000
H    -3.068000000    -0.183000000    -5.020000000
C    -3.179000000    -1.402000000    -3.296000000
C    -2.891000000    -2.696000000    -2.769000000
H    -3.200000000    -2.903000000    -1.748000000
C    -3.667000000    -0.225000000    -2.373000000
O    -3.882000000     0.996000000    -3.102000000
H    -2.883000000     0.067000000    -1.659000000
O    -4.891000000    -0.568000000    -1.612000000
C    -4.845000000    -0.191000000    -0.294000000
C    -4.671000000    -1.243000000     0.645000000
H    -4.765000000    -2.263000000     0.280000000
C    -4.375000000    -0.899000000     1.934000000
O    -3.910000000    -1.857000000     2.772000000
C    -4.323000000     0.434000000     2.298000000
C    -4.105000000     0.887000000     3.767000000
H    -4.539000000     1.830000000     4.106000000
C    -2.647000000     1.053000000     3.966000000
C    -2.117000000     2.383000000     3.823000000
H    -2.838000000     3.111000000     3.459000000
H    -4.456000000     0.141000000     4.483000000
C    -4.717000000     1.478000000     1.421000000
H    -4.894000000     2.439000000     1.897000000
C    -4.880000000     1.201000000     0.063000000
C    -5.170000000     2.293000000    -0.847000000
H    -5.754000000     3.103000000    -0.405000000
H    -5.874000000     1.931000000    -1.600000000
C    -3.865000000     2.823000000    -1.586000000
C    -3.160000000     3.890000000    -1.028000000
H    -3.494000000     4.458000000    -0.164000000
C    -3.360000000     2.134000000    -2.679000000
C    -2.115000000     2.484000000    -3.205000000
H    -1.649000000     1.899000000    -3.994000000
C    -1.332000000     3.419000000    -2.520000000
O     0.003000000     3.656000000    -2.994000000
C     1.147000000     3.339000000    -2.132000000
C     2.207000000     2.571000000    -2.901000000
C     3.575000000     2.820000000    -2.762000000
H     3.957000000     3.587000000    -2.092000000
C     1.780000000     1.556000000    -3.831000000
H     0.713000000     1.516000000    -4.033000000
O     1.660000000     4.460000000    -1.460000000
H     0.905000000     2.612000000    -1.343000000
C    -1.881000000     4.166000000    -1.481000000
C    -1.057000000     5.271000000    -0.899000000
H    -1.715000000     6.058000000    -0.524000000
H    -0.540000000     5.745000000    -1.736000000
C    -0.087000000     4.902000000     0.177000000
C    -0.490000000     4.761000000     1.526000000
H    -1.521000000     5.055000000     1.708000000
C     1.214000000     4.668000000    -0.185000000
C     2.076000000     4.253000000     0.828000000
H     3.121000000     4.054000000     0.606000000
C     1.571000000     3.988000000     2.092000000
O     2.401000000     3.287000000     2.892000000
C     2.192000000     1.863000000     3.125000000
C     3.569000000     1.130000000     3.203000000
C     4.586000000     1.328000000     2.256000000
H     4.611000000     2.252000000     1.683000000
C     3.695000000     0.018000000     4.028000000
H     2.869000000    -0.147000000     4.715000000
O     1.430000000     1.683000000     4.366000000
H     1.548000000     1.445000000     2.338000000
C     0.333000000     4.312000000     2.522000000
C    -0.278000000     4.068000000     3.890000000
H    -1.192000000     4.665000000     3.921000000
H     0.354000000     4.383000000     4.723000000
C    -0.764000000     2.615000000     3.980000000
C     0.015000000     1.558000000     4.334000000
C    -0.411000000     0.243000000     4.260000000
H     0.278000000    -0.596000000     4.318000000
C    -1.772000000     0.004000000     4.202000000
O    -2.071000000    -1.290000000     4.104000000
C    -2.470000000    -1.861000000     2.873000000
H    -2.191000000    -1.179000000     2.057000000
C    -1.773000000    -3.237000000     2.724000000
C    -2.448000000    -4.364000000     2.173000000
H    -3.505000000    -4.299000000     1.928000000
C    -0.430000000    -3.466000000     3.133000000
H     0.125000000    -2.683000000     3.643000000
C     0.138000000    -4.713000000     3.080000000
O     1.461000000    -4.877000000     3.457000000
C    -0.496000000    -5.835000000     2.559000000
H     0.162000000    -6.694000000     2.461000000
C    -1.791000000    -5.633000000     2.044000000
O    -2.319000000    -6.693000000     1.275000000
C    -2.977000000    -6.359000000     0.144000000
C    -2.255000000    -5.858000000    -0.918000000
H    -1.202000000    -5.659000000    -0.739000000
C    -4.379000000    -6.489000000     0.108000000
H    -4.863000000    -6.829000000     1.020000000
C    -5.021000000    -6.214000000    -1.095000000
H    -6.092000000    -6.385000000    -1.021000000
C    -4.248000000    -5.794000000    -2.204000000
H    -4.721000000    -5.545000000    -3.150000000
C    -2.824000000    -5.539000000    -2.139000000
O    -2.095000000    -5.032000000    -3.162000000
C    -2.375000000    -3.744000000    -3.599000000
C    -2.126000000    -3.414000000    -4.919000000
H    -1.659000000    -4.167000000    -5.548000000
C    -2.372000000    -2.163000000    -5.379000000
O    -2.017000000    -1.728000000    -6.603000000
C    -0.908000000    -0.953000000    -6.955000000
C     0.200000000    -0.884000000    -6.087000000
H     0.326000000    -1.586000000    -5.267000000
C    -0.983000000    -0.021000000    -7.926000000
H    -1.898000000     0.118000000    -8.497000000
C     0.089000000     0.823000000    -8.225000000
H     0.115000000     1.515000000    -9.063000000
C     1.194000000     0.831000000    -7.420000000
H     1.983000000     1.569000000    -7.542000000
C     1.227000000     0.018000000    -6.317000000
O     2.304000000    -0.180000000    -5.442000000
C     2.714000000     0.773000000    -4.504000000
C     4.089000000     1.098000000    -4.279000000
H     4.885000000     0.568000000    -4.796000000
C     4.506000000     2.063000000    -3.418000000
O     5.842000000     2.169000000    -3.328000000
C     6.375000000     2.238000000    -2.109000000
C     6.139000000     1.226000000    -1.141000000
H     5.580000000     0.345000000    -1.445000000
C     7.009000000     3.438000000    -1.819000000
H     7.118000000     4.207000000    -2.579000000
C     7.559000000     3.648000000    -0.518000000
H     8.201000000     4.493000000    -0.285000000
C     7.367000000     2.610000000     0.415000000
H     7.684000000     2.762000000     1.444000000
C     6.623000000     1.473000000     0.119000000
O     6.559000000     0.575000000     1.141000000
C     5.633000000     0.461000000     2.118000000
C     5.838000000    -0.579000000     3.042000000
H     6.630000000    -1.289000000     2.818000000
C     4.840000000    -0.806000000     3.972000000
O     4.946000000    -1.912000000     4.750000000
C     3.839000000    -2.600000000     5.108000000
C     3.430000000    -2.680000000     6.436000000
H     3.948000000    -2.151000000     7.232000000
C     2.414000000    -3.616000000     6.761000000
H     2.248000000    -3.800000000     7.819000000
C     1.698000000    -4.332000000     5.802000000
H     0.995000000    -5.066000000     6.189000000
C     2.126000000    -4.222000000     4.453000000
C     3.150000000    -3.321000000     4.147000000
H     3.484000000    -3.225000000     3.117000000
O     5.606000000    -2.852000000    -0.557000000
H     6.001000000    -2.953000000     0.309000000
H     4.830000000    -3.411000000    -0.533000000
O     7.223000000    -5.185000000    -1.350000000
H     6.734000000    -4.499000000    -0.895000000
H     6.549000000    -5.767000000    -1.700000000
O     2.517000000    -8.226000000     3.395000000
H     2.779000000    -7.431000000     2.930000000
H     1.970000000    -8.700000000     2.769000000
O     7.086000000    -3.976000000     1.676000000
H     6.769000000    -3.874000000     2.573000000
H     7.593000000    -4.787000000     1.691000000
O     8.392000000    -4.998000000    -3.851000000
H     7.740000000    -4.935000000    -4.549000000
H     7.877000000    -5.015000000    -3.044000000
O    -1.337000000    -8.493000000    -1.412000000
H    -1.397000000    -8.914000000    -0.554000000
H    -1.031000000    -7.606000000    -1.222000000
O     2.976000000    -6.085000000     1.436000000
H     2.400000000    -5.474000000     1.896000000
H     3.385000000    -5.558000000     0.749000000
O     4.570000000    -6.247000000    -1.626000000
H     4.029000000    -6.736000000    -2.247000000
H     4.006000000    -5.535000000    -1.327000000
O     0.927000000    -5.807000000    -3.896000000
H     1.171000000    -5.289000000    -3.129000000
H     0.387000000    -6.515000000    -3.546000000
O     5.227000000    -7.817000000     1.194000000
H     4.888000000    -8.087000000     0.341000000
H     4.808000000    -6.973000000     1.363000000
O     1.896000000    -4.080000000    -6.468000000
H     2.720000000    -3.786000000    -6.856000000
H     2.065000000    -4.092000000    -5.526000000
O     5.806000000    -4.571000000    -4.983000000
H     5.533000000    -5.384000000    -5.408000000
H     5.040000000    -4.296000000    -4.479000000
O     2.986000000    -7.889000000    -3.407000000
H     2.092000000    -7.552000000    -3.472000000
H     3.419000000    -7.570000000    -4.199000000
O    -0.063000000    -8.538000000    -3.863000000
H     0.340000000    -9.397000000    -3.987000000
H    -0.534000000    -8.612000000    -3.033000000
O     3.169000000    -3.581000000    -4.017000000
H     2.751000000    -3.910000000    -3.221000000
H     3.137000000    -2.628000000    -3.928000000
O    -1.687000000    -6.798000000    -5.266000000
H    -0.930000000    -7.280000000    -4.935000000
H    -1.946000000    -6.230000000    -4.540000000
O     0.804000000    -6.859000000    -0.639000000
H     1.229000000    -6.040000000    -0.893000000
H     1.263000000    -7.132000000     0.155000000
O     1.997000000   -10.044000000    -1.428000000
H     1.969000000    -9.230000000    -1.931000000
H     1.560000000   -10.686000000    -1.988000000
O     7.583000000    -1.719000000    -2.129000000
H     6.724000000    -1.958000000    -1.781000000
H     8.143000000    -2.466000000    -1.917000000
