201
-1259.22204
C    -1.243000000     2.697000000     4.914000000
H    -2.198000000     2.999000000     4.492000000
C    -0.196000000     2.868000000     4.022000000
C     1.060000000     2.394000000     4.403000000
H     1.994000000     2.687000000     3.931000000
C    -0.345000000     3.451000000     2.649000000
O    -1.691000000     4.009000000     2.474000000
H    -0.293000000     2.627000000     1.922000000
O     0.684000000     4.339000000     2.272000000
C     1.267000000     4.199000000     1.050000000
C     2.470000000     3.489000000     0.918000000
H     2.955000000     3.069000000     1.795000000
C     3.082000000     3.376000000    -0.301000000
O     4.185000000     2.580000000    -0.316000000
C     2.451000000     3.924000000    -1.494000000
C     3.049000000     3.676000000    -2.855000000
H     2.632000000     4.360000000    -3.597000000
C     2.565000000     2.298000000    -3.377000000
C     1.458000000     2.220000000    -4.276000000
H     0.975000000     3.102000000    -4.687000000
H     4.138000000     3.739000000    -2.886000000
C     1.258000000     4.686000000    -1.358000000
H     0.724000000     5.088000000    -2.215000000
C     0.724000000     4.865000000    -0.040000000
C    -0.586000000     5.560000000     0.123000000
H    -0.697000000     6.362000000    -0.609000000
H    -0.530000000     6.164000000     1.031000000
C    -1.741000000     4.599000000     0.067000000
C    -2.428000000     4.262000000    -1.205000000
H    -2.030000000     4.745000000    -2.094000000
C    -2.240000000     3.945000000     1.266000000
C    -3.250000000     3.007000000     1.211000000
H    -3.620000000     2.562000000     2.131000000
C    -3.862000000     2.650000000    -0.017000000
O    -4.801000000     1.576000000     0.021000000
C    -4.267000000     0.303000000    -0.482000000
C    -4.484000000    -0.889000000     0.388000000
C    -4.795000000    -2.117000000    -0.097000000
H    -4.778000000    -2.278000000    -1.172000000
C    -4.431000000    -0.665000000     1.779000000
H    -4.086000000     0.282000000     2.188000000
O    -4.750000000     0.115000000    -1.815000000
H    -3.205000000     0.516000000    -0.674000000
C    -3.472000000     3.323000000    -1.200000000
C    -4.144000000     2.986000000    -2.527000000
H    -4.076000000     3.845000000    -3.198000000
H    -5.197000000     2.882000000    -2.258000000
C    -3.427000000     1.766000000    -3.155000000
C    -2.271000000     1.875000000    -4.027000000
H    -1.993000000     2.833000000    -4.459000000
C    -3.826000000     0.443000000    -2.820000000
C    -3.142000000    -0.627000000    -3.291000000
H    -3.452000000    -1.645000000    -3.070000000
C    -1.971000000    -0.527000000    -4.117000000
O    -1.266000000    -1.714000000    -4.336000000
C     0.009000000    -1.969000000    -3.777000000
C     0.111000000    -3.445000000    -3.346000000
C    -1.024000000    -4.233000000    -3.145000000
H    -2.010000000    -3.854000000    -3.405000000
C     1.356000000    -3.879000000    -2.886000000
H     2.264000000    -3.319000000    -3.094000000
O     1.094000000    -1.466000000    -4.596000000
H    -0.018000000    -1.351000000    -2.868000000
C    -1.553000000     0.761000000    -4.476000000
C    -0.323000000     0.957000000    -5.366000000
H    -0.466000000     1.852000000    -5.975000000
H    -0.208000000     0.134000000    -6.074000000
C     0.954000000     0.973000000    -4.619000000
C     1.666000000    -0.253000000    -4.377000000
C     2.758000000    -0.153000000    -3.511000000
H     3.104000000    -1.087000000    -3.076000000
C     3.223000000     1.088000000    -3.001000000
O     4.240000000     1.155000000    -2.123000000
C     3.983000000     1.186000000    -0.739000000
H     2.956000000     0.886000000    -0.487000000
C     4.923000000     0.230000000    -0.056000000
C     5.208000000     0.489000000     1.262000000
H     4.762000000     1.344000000     1.764000000
C     5.411000000    -0.937000000    -0.618000000
H     5.176000000    -1.055000000    -1.672000000
C     6.069000000    -1.877000000     0.194000000
O     6.518000000    -3.026000000    -0.366000000
C     6.322000000    -1.578000000     1.516000000
H     6.892000000    -2.235000000     2.168000000
C     5.948000000    -0.361000000     2.078000000
O     6.267000000    -0.061000000     3.378000000
C     5.625000000     0.901000000     4.065000000
C     4.440000000     0.647000000     4.682000000
H     3.886000000    -0.288000000     4.659000000
C     6.175000000     2.194000000     4.128000000
H     7.178000000     2.438000000     3.786000000
C     5.479000000     3.137000000     4.871000000
H     5.961000000     4.102000000     5.008000000
C     4.300000000     2.878000000     5.535000000
H     3.808000000     3.638000000     6.137000000
C     3.694000000     1.639000000     5.369000000
O     2.508000000     1.332000000     5.987000000
C     1.268000000     1.725000000     5.577000000
C     0.194000000     1.391000000     6.392000000
H     0.276000000     0.748000000     7.265000000
C    -1.115000000     1.794000000     6.011000000
O    -2.233000000     1.395000000     6.721000000
C    -3.404000000     1.041000000     6.055000000
C    -3.401000000    -0.143000000     5.349000000
H    -2.520000000    -0.778000000     5.288000000
C    -4.449000000     1.985000000     5.979000000
H    -4.316000000     2.926000000     6.508000000
C    -5.554000000     1.671000000     5.268000000
H    -6.376000000     2.375000000     5.369000000
C    -5.632000000     0.474000000     4.554000000
H    -6.510000000     0.318000000     3.932000000
C    -4.567000000    -0.386000000     4.650000000
O    -4.648000000    -1.551000000     3.988000000
C    -4.692000000    -1.746000000     2.613000000
C    -5.005000000    -3.004000000     2.142000000
H    -5.129000000    -3.859000000     2.802000000
C    -5.137000000    -3.156000000     0.775000000
O    -5.500000000    -4.380000000     0.272000000
C    -5.090000000    -4.834000000    -0.937000000
C    -3.731000000    -5.211000000    -1.094000000
H    -2.989000000    -5.080000000    -0.311000000
C    -6.002000000    -4.978000000    -1.938000000
H    -7.060000000    -4.912000000    -1.699000000
C    -5.609000000    -5.563000000    -3.087000000
H    -6.290000000    -5.786000000    -3.904000000
C    -4.326000000    -6.002000000    -3.246000000
H    -4.076000000    -6.523000000    -4.166000000
C    -3.357000000    -5.785000000    -2.273000000
O    -2.055000000    -6.229000000    -2.393000000
C    -0.935000000    -5.437000000    -2.469000000
C     0.332000000    -5.928000000    -2.084000000
H     0.389000000    -6.879000000    -1.562000000
C     1.480000000    -5.136000000    -2.276000000
O     2.721000000    -5.617000000    -1.865000000
C     3.981000000    -5.055000000    -2.150000000
C     4.596000000    -5.267000000    -3.403000000
H     4.167000000    -5.776000000    -4.262000000
C     5.859000000    -4.710000000    -3.630000000
H     6.400000000    -4.917000000    -4.550000000
C     6.466000000    -3.977000000    -2.637000000
H     7.417000000    -3.484000000    -2.820000000
C     5.843000000    -3.721000000    -1.395000000
C     4.609000000    -4.338000000    -1.123000000
H     4.152000000    -4.159000000    -0.153000000
O     8.460000000    -1.969000000     4.717000000
H     8.485000000    -2.851000000     5.090000000
H     7.528000000    -1.760000000     4.659000000
O     3.286000000    -5.121000000     5.190000000
H     2.475000000    -5.598000000     5.018000000
H     3.318000000    -4.449000000     4.509000000
O     1.919000000    -7.089000000     0.543000000
H     2.062000000    -6.302000000     1.069000000
H     2.488000000    -6.976000000    -0.218000000
O     5.912000000    -4.377000000     3.223000000
H     5.016000000    -4.086000000     3.054000000
H     6.111000000    -4.043000000     4.097000000
O     1.145000000    -9.184000000     2.669000000
H     2.041000000    -9.439000000     2.449000000
H     0.953000000    -8.454000000     2.081000000
O    -0.089000000    -8.907000000     5.197000000
H     0.355000000    -8.920000000     4.349000000
H     0.251000000    -9.674000000     5.657000000
O    -2.402000000    -4.807000000     2.642000000
H    -1.971000000    -3.993000000     2.901000000
H    -1.687000000    -5.377000000     2.359000000
O     8.494000000    -5.051000000     1.600000000
H     7.574000000    -5.026000000     1.863000000
H     8.475000000    -4.951000000     0.649000000
O     5.250000000    -7.897000000     0.375000000
H     4.488000000    -8.243000000    -0.090000000
H     4.930000000    -7.715000000     1.258000000
O     3.159000000    -4.264000000     7.935000000
H     3.192000000    -4.643000000     7.057000000
H     4.053000000    -3.967000000     8.101000000
O     5.137000000    -3.118000000     5.682000000
H     4.945000000    -2.470000000     5.003000000
H     4.398000000    -3.726000000     5.648000000
O     4.125000000    -8.945000000     4.710000000
H     4.709000000    -9.297000000     4.038000000
H     3.994000000    -8.031000000     4.457000000
O     0.164000000    -6.127000000     5.377000000
H    -0.024000000    -7.033000000     5.621000000
H    -0.660000000    -5.663000000     5.524000000
O     5.768000000    -3.194000000     8.348000000
H     5.948000000    -2.287000000     8.597000000
H     5.547000000    -3.148000000     7.418000000
O     0.614000000    -2.358000000     5.648000000
H     0.375000000    -3.256000000     5.879000000
H     0.987000000    -1.995000000     6.451000000
O     0.455000000    -9.217000000    -0.611000000
H     0.569000000    -8.361000000    -0.199000000
H    -0.466000000    -9.237000000    -0.871000000
O     0.062000000    -6.054000000     2.598000000
H     0.167000000    -6.240000000     3.531000000
H     0.871000000    -5.607000000     2.350000000
O     4.385000000    -6.773000000     3.042000000
H     3.711000000    -6.265000000     2.588000000
H     5.079000000    -6.140000000     3.226000000
O    -1.194000000    -2.097000000     3.346000000
H    -0.436000000    -1.811000000     3.856000000
H    -1.070000000    -1.695000000     2.486000000
