201
-1243.73878
C    -1.334000000     0.926000000     4.681000000
H    -2.328000000     1.085000000     4.271000000
C    -0.292000000     1.762000000     4.269000000
C     0.947000000     1.637000000     4.833000000
H     1.803000000     2.180000000     4.439000000
C    -0.573000000     2.834000000     3.181000000
O    -1.926000000     3.286000000     3.204000000
H    -0.363000000     2.398000000     2.194000000
O     0.258000000     3.969000000     3.299000000
C     0.859000000     4.237000000     2.106000000
C     2.147000000     3.751000000     1.876000000
H     2.640000000     3.202000000     2.674000000
C     2.706000000     3.884000000     0.602000000
O     3.913000000     3.352000000     0.287000000
C     1.967000000     4.467000000    -0.437000000
C     2.522000000     4.586000000    -1.849000000
H     2.050000000     5.412000000    -2.385000000
C     2.295000000     3.273000000    -2.699000000
C     1.163000000     3.195000000    -3.509000000
H     0.483000000     4.042000000    -3.460000000
H     3.573000000     4.882000000    -1.831000000
C     0.661000000     4.893000000    -0.189000000
H     0.105000000     5.389000000    -0.980000000
C     0.168000000     4.865000000     1.045000000
C    -1.259000000     5.291000000     1.212000000
H    -1.575000000     6.064000000     0.508000000
H    -1.385000000     5.729000000     2.204000000
C    -2.231000000     4.157000000     0.983000000
C    -2.838000000     4.007000000    -0.240000000
H    -2.701000000     4.699000000    -1.067000000
C    -2.522000000     3.284000000     2.022000000
C    -3.353000000     2.261000000     1.820000000
H    -3.370000000     1.466000000     2.561000000
C    -3.890000000     2.065000000     0.549000000
O    -4.609000000     0.863000000     0.359000000
C    -3.922000000    -0.131000000    -0.442000000
C    -4.284000000    -1.495000000     0.106000000
C    -4.633000000    -2.588000000    -0.725000000
H    -4.728000000    -2.470000000    -1.801000000
C    -4.190000000    -1.821000000     1.490000000
H    -3.936000000    -1.108000000     2.271000000
O    -4.514000000    -0.058000000    -1.769000000
H    -2.848000000     0.100000000    -0.512000000
C    -3.624000000     2.916000000    -0.524000000
C    -4.244000000     2.835000000    -1.911000000
H    -4.310000000     3.828000000    -2.359000000
H    -5.275000000     2.503000000    -1.774000000
C    -3.347000000     1.859000000    -2.666000000
C    -2.364000000     2.404000000    -3.521000000
H    -2.232000000     3.481000000    -3.471000000
C    -3.567000000     0.501000000    -2.588000000
C    -2.856000000    -0.361000000    -3.428000000
H    -3.035000000    -1.434000000    -3.414000000
C    -1.840000000     0.189000000    -4.197000000
O    -0.981000000    -0.701000000    -4.788000000
C     0.233000000    -1.040000000    -4.098000000
C     0.434000000    -2.567000000    -4.086000000
C    -0.605000000    -3.468000000    -4.344000000
H    -1.631000000    -3.139000000    -4.485000000
C     1.736000000    -3.064000000    -3.823000000
H     2.518000000    -2.351000000    -3.577000000
O     1.306000000    -0.236000000    -4.706000000
H     0.240000000    -0.716000000    -3.047000000
C    -1.590000000     1.591000000    -4.282000000
C    -0.412000000     2.020000000    -5.072000000
H    -0.635000000     3.049000000    -5.364000000
H    -0.266000000     1.509000000    -6.026000000
C     0.794000000     2.001000000    -4.183000000
C     1.602000000     0.925000000    -4.013000000
C     2.734000000     0.965000000    -3.205000000
H     3.267000000     0.025000000    -3.094000000
C     3.100000000     2.139000000    -2.610000000
O     4.158000000     2.032000000    -1.694000000
C     3.840000000     1.908000000    -0.296000000
H     2.869000000     1.435000000    -0.090000000
C     4.710000000     0.825000000     0.378000000
C     5.145000000     1.019000000     1.674000000
H     4.733000000     1.841000000     2.254000000
C     5.097000000    -0.231000000    -0.424000000
H     4.694000000    -0.360000000    -1.425000000
C     5.771000000    -1.237000000     0.265000000
O     6.078000000    -2.437000000    -0.362000000
C     6.211000000    -1.128000000     1.576000000
H     6.846000000    -1.915000000     1.975000000
C     5.914000000     0.071000000     2.334000000
O     6.394000000     0.316000000     3.587000000
C     5.674000000     1.004000000     4.559000000
C     4.546000000     0.463000000     5.140000000
H     4.333000000    -0.592000000     4.986000000
C     5.988000000     2.330000000     4.969000000
H     6.934000000     2.759000000     4.648000000
C     5.134000000     3.066000000     5.733000000
H     5.395000000     4.103000000     5.930000000
C     3.878000000     2.508000000     6.115000000
H     3.204000000     3.124000000     6.705000000
C     3.620000000     1.164000000     5.855000000
O     2.535000000     0.529000000     6.312000000
C     1.264000000     0.685000000     5.753000000
C     0.217000000    -0.041000000     6.298000000
H     0.444000000    -0.696000000     7.135000000
C    -1.107000000     0.064000000     5.742000000
O    -2.139000000    -0.625000000     6.395000000
C    -3.252000000    -1.143000000     5.925000000
C    -3.273000000    -2.047000000     4.850000000
H    -2.366000000    -2.160000000     4.262000000
C    -4.429000000    -0.830000000     6.540000000
H    -4.442000000    -0.059000000     7.307000000
C    -5.676000000    -1.285000000     6.020000000
H    -6.598000000    -0.868000000     6.419000000
C    -5.729000000    -2.148000000     4.854000000
H    -6.691000000    -2.478000000     4.471000000
C    -4.521000000    -2.507000000     4.309000000
O    -4.495000000    -3.417000000     3.343000000
C    -4.446000000    -3.108000000     1.973000000
C    -4.616000000    -4.177000000     1.095000000
H    -4.657000000    -5.230000000     1.365000000
C    -4.775000000    -3.924000000    -0.281000000
O    -5.027000000    -4.926000000    -1.188000000
C    -4.555000000    -4.881000000    -2.506000000
C    -3.253000000    -5.189000000    -2.749000000
H    -2.548000000    -5.270000000    -1.926000000
C    -5.517000000    -4.705000000    -3.468000000
H    -6.558000000    -4.509000000    -3.224000000
C    -5.057000000    -4.904000000    -4.795000000
H    -5.751000000    -4.921000000    -5.632000000
C    -3.730000000    -5.234000000    -5.085000000
H    -3.420000000    -5.167000000    -6.125000000
C    -2.794000000    -5.316000000    -4.023000000
O    -1.473000000    -5.676000000    -4.266000000
C    -0.416000000    -4.812000000    -4.042000000
C     0.865000000    -5.309000000    -3.705000000
H     1.024000000    -6.378000000    -3.591000000
C     1.962000000    -4.453000000    -3.659000000
O     3.258000000    -4.905000000    -3.377000000
C     4.318000000    -3.984000000    -3.196000000
C     4.953000000    -3.376000000    -4.301000000
H     4.716000000    -3.759000000    -5.291000000
C     6.013000000    -2.476000000    -4.053000000
H     6.582000000    -2.017000000    -4.857000000
C     6.345000000    -2.085000000    -2.727000000
H     7.184000000    -1.427000000    -2.511000000
C     5.714000000    -2.690000000    -1.668000000
C     4.668000000    -3.632000000    -1.933000000
H     4.237000000    -4.149000000    -1.079000000
O    -1.792000000    -5.099000000     1.195000000
H    -1.095000000    -5.408000000     0.617000000
H    -1.469000000    -4.265000000     1.537000000
O    -2.463000000    -8.267000000     2.521000000
H    -2.905000000    -7.496000000     2.165000000
H    -1.543000000    -8.145000000     2.287000000
O     4.241000000    -4.306000000     2.053000000
H     5.085000000    -4.628000000     1.739000000
H     3.594000000    -4.766000000     1.518000000
O     4.572000000   -10.006000000     0.101000000
H     4.463000000    -9.382000000     0.819000000
H     5.132000000    -9.551000000    -0.528000000
O    -3.583000000    -7.002000000     0.411000000
H    -4.245000000    -6.719000000    -0.219000000
H    -2.907000000    -6.325000000     0.369000000
O    -2.006000000   -10.220000000    -1.646000000
H    -1.744000000    -9.303000000    -1.724000000
H    -1.425000000   -10.686000000    -2.248000000
O     6.241000000    -6.187000000     0.591000000
H     7.028000000    -6.253000000     0.052000000
H     5.584000000    -6.700000000     0.120000000
O     0.285000000    -7.967000000     1.873000000
H     0.235000000    -7.420000000     1.090000000
H     1.113000000    -8.438000000     1.784000000
O    -0.073000000   -11.145000000     0.926000000
H    -0.507000000   -10.312000000     0.742000000
H     0.762000000   -11.089000000     0.463000000
O     3.726000000    -7.616000000     1.514000000
H     3.959000000    -7.293000000     2.384000000
H     3.309000000    -6.869000000     1.084000000
O     1.490000000    -5.876000000     3.617000000
H     1.314000000    -5.962000000     4.554000000
H     0.703000000    -6.218000000     3.193000000
O     5.454000000    -6.790000000    -4.198000000
H     4.654000000    -6.266000000    -4.240000000
H     6.012000000    -6.430000000    -4.887000000
O    -0.718000000    -7.786000000    -1.734000000
H    -0.160000000    -8.016000000    -2.477000000
H    -0.207000000    -7.144000000    -1.241000000
O     2.367000000    -8.066000000    -1.313000000
H     2.022000000    -7.421000000    -0.695000000
H     3.313000000    -7.918000000    -1.309000000
O    -0.608000000    -3.182000000     2.689000000
H    -0.321000000    -3.046000000     3.591000000
H     0.151000000    -2.944000000     2.157000000
O     4.166000000    -6.521000000     4.367000000
H     3.335000000    -6.315000000     3.938000000
H     4.330000000    -5.775000000     4.944000000
O     2.034000000    -3.102000000     3.439000000
H     1.786000000    -4.026000000     3.456000000
H     2.845000000    -3.081000000     2.931000000
O    -2.584000000    -5.245000000     4.054000000
H    -2.271000000    -5.698000000     3.272000000
H    -3.120000000    -4.527000000     3.717000000
O     1.170000000    -9.074000000    -3.457000000
H     1.749000000    -8.803000000    -4.170000000
H     1.683000000    -8.923000000    -2.663000000
