201
-1248.10236
C    -0.313000000     2.542000000     4.247000000
H    -1.343000000     2.740000000     3.961000000
C     0.753000000     2.765000000     3.355000000
C     2.091000000     2.584000000     3.666000000
H     2.791000000     2.767000000     2.855000000
C     0.530000000     3.410000000     1.951000000
O    -0.653000000     4.239000000     2.001000000
H     0.368000000     2.614000000     1.210000000
O     1.647000000     4.320000000     1.545000000
C     2.032000000     4.276000000     0.212000000
C     3.136000000     3.579000000    -0.144000000
H     3.739000000     3.355000000     0.732000000
C     3.401000000     3.139000000    -1.459000000
O     4.428000000     2.236000000    -1.622000000
C     2.518000000     3.390000000    -2.429000000
C     2.722000000     2.947000000    -3.903000000
H     2.291000000     3.698000000    -4.567000000
C     2.119000000     1.591000000    -4.127000000
C     0.879000000     1.459000000    -4.786000000
H     0.426000000     2.384000000    -5.133000000
H     3.797000000     2.957000000    -4.095000000
C     1.357000000     4.142000000    -2.133000000
H     0.578000000     4.338000000    -2.865000000
C     1.184000000     4.704000000    -0.837000000
C    -0.018000000     5.468000000    -0.590000000
H    -0.140000000     6.242000000    -1.351000000
H     0.204000000     6.084000000     0.284000000
C    -1.280000000     4.623000000    -0.297000000
C    -2.164000000     4.273000000    -1.326000000
H    -1.982000000     4.626000000    -2.339000000
C    -1.534000000     4.117000000     0.963000000
C    -2.655000000     3.300000000     1.203000000
H    -2.760000000     2.765000000     2.144000000
C    -3.502000000     2.968000000     0.154000000
O    -4.495000000     1.950000000     0.444000000
C    -4.150000000     0.642000000     0.094000000
C    -4.651000000    -0.386000000     1.102000000
C    -5.222000000    -1.586000000     0.741000000
H    -5.353000000    -1.913000000    -0.287000000
C    -4.327000000    -0.087000000     2.411000000
H    -3.785000000     0.819000000     2.663000000
O    -4.790000000     0.401000000    -1.191000000
H    -3.055000000     0.626000000    -0.008000000
C    -3.246000000     3.451000000    -1.113000000
C    -4.011000000     2.926000000    -2.317000000
H    -3.873000000     3.682000000    -3.092000000
H    -5.081000000     2.968000000    -2.103000000
C    -3.571000000     1.581000000    -2.860000000
C    -2.752000000     1.550000000    -3.958000000
H    -2.478000000     2.463000000    -4.480000000
C    -3.911000000     0.392000000    -2.227000000
C    -3.400000000    -0.809000000    -2.691000000
H    -3.812000000    -1.703000000    -2.228000000
C    -2.595000000    -0.852000000    -3.761000000
O    -2.042000000    -2.111000000    -3.954000000
C    -0.843000000    -2.435000000    -3.300000000
C    -0.759000000    -3.857000000    -2.763000000
C    -1.869000000    -4.605000000    -2.283000000
H    -2.841000000    -4.125000000    -2.365000000
C     0.521000000    -4.415000000    -2.522000000
H     1.402000000    -3.898000000    -2.895000000
O     0.194000000    -2.184000000    -4.257000000
H    -0.603000000    -1.846000000    -2.403000000
C    -2.271000000     0.301000000    -4.427000000
C    -1.202000000     0.248000000    -5.489000000
H    -1.325000000     1.051000000    -6.218000000
H    -1.277000000    -0.657000000    -6.096000000
C     0.160000000     0.271000000    -4.862000000
C     0.729000000    -0.889000000    -4.246000000
C     2.006000000    -0.770000000    -3.699000000
H     2.438000000    -1.654000000    -3.237000000
C     2.693000000     0.416000000    -3.629000000
O     3.909000000     0.413000000    -2.962000000
C     3.951000000     0.916000000    -1.591000000
H     2.875000000     0.926000000    -1.364000000
C     4.757000000     0.041000000    -0.574000000
C     5.516000000     0.669000000     0.485000000
H     5.435000000     1.746000000     0.602000000
C     4.814000000    -1.297000000    -0.715000000
H     4.341000000    -1.648000000    -1.630000000
C     5.553000000    -2.096000000     0.105000000
O     5.627000000    -3.414000000    -0.163000000
C     6.163000000    -1.514000000     1.190000000
H     6.628000000    -2.114000000     1.968000000
C     6.259000000    -0.156000000     1.354000000
O     6.908000000     0.337000000     2.415000000
C     6.378000000     1.383000000     3.144000000
C     5.258000000     1.188000000     3.943000000
H     4.761000000     0.222000000     4.004000000
C     7.026000000     2.617000000     3.128000000
H     7.963000000     2.715000000     2.587000000
C     6.427000000     3.700000000     3.840000000
H     6.952000000     4.651000000     3.845000000
C     5.329000000     3.450000000     4.659000000
H     4.851000000     4.191000000     5.295000000
C     4.741000000     2.242000000     4.704000000
O     3.577000000     2.100000000     5.462000000
C     2.371000000     2.444000000     5.041000000
C     1.369000000     2.209000000     5.947000000
H     1.678000000     2.024000000     6.973000000
C     0.020000000     2.315000000     5.602000000
O    -0.986000000     2.056000000     6.513000000
C    -2.291000000     1.703000000     6.109000000
C    -2.525000000     0.582000000     5.405000000
H    -1.669000000    -0.029000000     5.131000000
C    -3.326000000     2.484000000     6.638000000
H    -3.152000000     3.236000000     7.405000000
C    -4.638000000     2.045000000     6.412000000
H    -5.475000000     2.578000000     6.856000000
C    -4.891000000     0.904000000     5.701000000
H    -5.907000000     0.547000000     5.549000000
C    -3.845000000     0.173000000     5.231000000
O    -4.086000000    -1.016000000     4.657000000
C    -4.562000000    -1.090000000     3.362000000
C    -5.063000000    -2.364000000     2.977000000
H    -5.246000000    -3.165000000     3.688000000
C    -5.536000000    -2.534000000     1.714000000
O    -5.994000000    -3.736000000     1.352000000
C    -5.548000000    -4.377000000     0.184000000
C    -4.335000000    -5.119000000     0.053000000
H    -3.576000000    -4.963000000     0.816000000
C    -6.444000000    -4.536000000    -0.891000000
H    -7.414000000    -4.055000000    -0.795000000
C    -6.216000000    -5.305000000    -2.038000000
H    -6.989000000    -5.428000000    -2.793000000
C    -4.935000000    -5.934000000    -2.172000000
H    -4.707000000    -6.611000000    -2.992000000
C    -4.045000000    -5.855000000    -1.102000000
O    -2.841000000    -6.521000000    -1.278000000
C    -1.723000000    -5.835000000    -1.703000000
C    -0.466000000    -6.314000000    -1.466000000
H    -0.458000000    -7.357000000    -1.160000000
C     0.685000000    -5.588000000    -1.873000000
O     1.954000000    -6.197000000    -1.638000000
C     3.129000000    -5.576000000    -1.867000000
C     3.638000000    -5.523000000    -3.232000000
H     3.054000000    -5.922000000    -4.058000000
C     4.807000000    -4.861000000    -3.501000000
H     5.188000000    -4.818000000    -4.518000000
C     5.433000000    -4.140000000    -2.448000000
H     6.401000000    -3.689000000    -2.652000000
C     4.921000000    -4.143000000    -1.134000000
C     3.726000000    -4.867000000    -0.831000000
H     3.286000000    -4.733000000     0.155000000
O    -3.150000000    -4.168000000     4.592000000
H    -2.995000000    -3.335000000     4.148000000
H    -2.562000000    -4.785000000     4.156000000
O    -1.525000000    -5.992000000     3.500000000
H    -0.693000000    -5.739000000     3.100000000
H    -1.550000000    -6.945000000     3.418000000
O     6.268000000    -5.103000000     4.964000000
H     5.857000000    -5.756000000     5.530000000
H     5.709000000    -4.330000000     5.043000000
O     1.228000000    -8.392000000     2.146000000
H     0.314000000    -8.665000000     2.228000000
H     1.184000000    -7.446000000     2.006000000
O     2.517000000    -9.155000000    -2.038000000
H     1.945000000    -9.779000000    -2.484000000
H     1.932000000    -8.452000000    -1.756000000
O     5.120000000    -7.981000000     5.521000000
H     4.694000000    -8.504000000     4.842000000
H     5.817000000    -8.545000000     5.857000000
O     3.437000000   -10.295000000     1.161000000
H     2.683000000    -9.762000000     1.412000000
H     4.159000000    -9.671000000     1.091000000
O    -0.597000000    -7.422000000     6.401000000
H    -0.982000000    -7.860000000     5.642000000
H     0.283000000    -7.178000000     6.115000000
O    -1.803000000    -8.769000000     4.307000000
H    -2.188000000    -9.367000000     3.666000000
H    -1.609000000    -9.322000000     5.064000000
O     2.822000000    -3.744000000     6.134000000
H     2.046000000    -3.505000000     5.627000000
H     2.758000000    -3.218000000     6.931000000
O     4.266000000    -2.853000000     3.915000000
H     3.648000000    -3.309000000     3.344000000
H     3.780000000    -2.709000000     4.727000000
O     1.796000000    -8.737000000     4.785000000
H     1.920000000    -8.582000000     3.849000000
H     1.997000000    -7.896000000     5.195000000
O     7.176000000    -5.816000000     0.606000000
H     6.801000000    -6.419000000    -0.035000000
H     6.442000000    -5.586000000     1.177000000
O     1.692000000    -0.568000000     6.562000000
H     1.663000000    -0.698000000     5.614000000
H     0.861000000    -0.923000000     6.878000000
O     0.724000000    -1.356000000     3.835000000
H     0.453000000    -2.265000000     3.955000000
H     0.838000000    -1.263000000     2.889000000
O     2.341000000    -6.037000000     4.843000000
H     2.117000000    -5.628000000     4.007000000
H     2.544000000    -5.302000000     5.422000000
O     5.174000000    -8.122000000     1.037000000
H     5.008000000    -7.913000000     0.118000000
H     5.216000000    -7.271000000     1.473000000
O     5.012000000    -5.639000000     2.328000000
H     4.258000000    -5.111000000     2.592000000
H     5.442000000    -5.870000000     3.152000000
O     0.028000000    -3.912000000     5.189000000
H    -0.501000000    -4.689000000     5.008000000
H    -0.451000000    -3.450000000     5.876000000
