201
-1242.44115
C     0.273000000     3.661000000     4.031000000
H    -0.711000000     4.043000000     3.771000000
C     1.259000000     3.680000000     3.083000000
C     2.588000000     3.226000000     3.419000000
H     3.346000000     3.235000000     2.640000000
C     0.828000000     3.853000000     1.536000000
O    -0.293000000     4.739000000     1.368000000
H     0.491000000     2.864000000     1.192000000
O     1.986000000     4.215000000     0.825000000
C     2.210000000     3.929000000    -0.527000000
C     3.292000000     3.135000000    -0.805000000
H     3.961000000     2.945000000     0.031000000
C     3.487000000     2.550000000    -2.052000000
O     4.411000000     1.499000000    -2.064000000
C     2.633000000     2.854000000    -3.104000000
C     2.574000000     2.145000000    -4.434000000
H     2.063000000     2.771000000    -5.169000000
C     1.738000000     0.874000000    -4.343000000
C     0.486000000     0.903000000    -4.992000000
H     0.033000000     1.781000000    -5.446000000
H     3.545000000     1.805000000    -4.800000000
C     1.649000000     3.798000000    -2.848000000
H     1.120000000     4.167000000    -3.723000000
C     1.394000000     4.300000000    -1.633000000
C     0.216000000     5.223000000    -1.474000000
H     0.197000000     5.611000000    -2.495000000
H     0.512000000     6.032000000    -0.803000000
C    -0.986000000     4.541000000    -0.962000000
C    -1.970000000     4.034000000    -1.837000000
H    -1.809000000     4.030000000    -2.912000000
C    -1.168000000     4.375000000     0.409000000
C    -2.332000000     3.788000000     0.912000000
H    -2.405000000     3.582000000     1.976000000
C    -3.307000000     3.356000000     0.073000000
O    -4.318000000     2.525000000     0.657000000
C    -4.070000000     1.103000000     0.533000000
C    -4.367000000     0.324000000     1.813000000
C    -4.528000000    -1.039000000     1.637000000
H    -4.442000000    -1.545000000     0.679000000
C    -4.382000000     0.900000000     3.101000000
H    -4.148000000     1.941000000     3.308000000
O    -4.822000000     0.535000000    -0.648000000
H    -3.040000000     0.775000000     0.326000000
C    -3.149000000     3.481000000    -1.293000000
C    -4.163000000     2.845000000    -2.171000000
H    -4.210000000     3.432000000    -3.090000000
H    -5.193000000     2.826000000    -1.809000000
C    -3.824000000     1.491000000    -2.597000000
C    -3.154000000     1.304000000    -3.867000000
H    -2.860000000     2.208000000    -4.395000000
C    -4.142000000     0.377000000    -1.830000000
C    -3.784000000    -0.918000000    -2.269000000
H    -3.985000000    -1.729000000    -1.573000000
C    -3.171000000    -1.149000000    -3.539000000
O    -2.666000000    -2.398000000    -3.725000000
C    -1.305000000    -2.688000000    -3.243000000
C    -1.239000000    -4.050000000    -2.663000000
C    -2.333000000    -4.574000000    -2.011000000
H    -3.296000000    -4.075000000    -1.942000000
C     0.054000000    -4.643000000    -2.604000000
H     0.942000000    -4.227000000    -3.072000000
O    -0.469000000    -2.572000000    -4.456000000
H    -1.019000000    -1.950000000    -2.480000000
C    -2.802000000     0.002000000    -4.288000000
C    -1.874000000    -0.235000000    -5.473000000
H    -2.146000000     0.425000000    -6.299000000
H    -2.160000000    -1.221000000    -5.845000000
C    -0.344000000    -0.249000000    -5.048000000
C     0.246000000    -1.429000000    -4.543000000
C     1.542000000    -1.464000000    -4.026000000
H     1.966000000    -2.332000000    -3.528000000
C     2.258000000    -0.297000000    -3.882000000
O     3.530000000    -0.320000000    -3.346000000
C     3.737000000     0.250000000    -2.008000000
H     2.719000000     0.351000000    -1.604000000
C     4.458000000    -0.723000000    -1.144000000
C     4.845000000    -0.314000000     0.139000000
H     4.769000000     0.723000000     0.458000000
C     4.662000000    -2.057000000    -1.538000000
H     4.394000000    -2.515000000    -2.486000000
C     5.303000000    -2.938000000    -0.659000000
O     5.546000000    -4.295000000    -0.913000000
C     5.761000000    -2.517000000     0.564000000
H     6.273000000    -3.211000000     1.225000000
C     5.496000000    -1.226000000     1.001000000
O     5.949000000    -0.803000000     2.299000000
C     5.971000000     0.526000000     2.778000000
C     4.997000000     0.894000000     3.722000000
H     4.142000000     0.273000000     3.980000000
C     7.144000000     1.280000000     2.779000000
H     7.934000000     0.839000000     2.177000000
C     7.317000000     2.429000000     3.500000000
H     8.219000000     3.003000000     3.307000000
C     6.267000000     2.945000000     4.242000000
H     6.337000000     3.958000000     4.630000000
C     5.075000000     2.143000000     4.367000000
O     4.081000000     2.658000000     5.217000000
C     2.832000000     2.918000000     4.743000000
C     1.798000000     3.010000000     5.724000000
H     2.027000000     2.858000000     6.776000000
C     0.481000000     3.372000000     5.361000000
O    -0.463000000     3.444000000     6.447000000
C    -1.801000000     3.377000000     6.189000000
C    -2.313000000     2.111000000     5.819000000
H    -1.648000000     1.320000000     5.482000000
C    -2.620000000     4.404000000     6.634000000
H    -2.179000000     5.236000000     7.176000000
C    -3.982000000     4.179000000     6.646000000
H    -4.602000000     4.942000000     7.109000000
C    -4.507000000     2.947000000     6.261000000
H    -5.586000000     2.850000000     6.175000000
C    -3.713000000     1.966000000     5.770000000
O    -4.240000000     0.646000000     5.454000000
C    -4.526000000     0.131000000     4.211000000
C    -4.620000000    -1.227000000     4.063000000
H    -4.639000000    -1.878000000     4.933000000
C    -4.626000000    -1.786000000     2.813000000
O    -4.622000000    -3.198000000     2.835000000
C    -4.834000000    -3.904000000     1.689000000
C    -3.892000000    -4.808000000     1.178000000
H    -2.930000000    -4.719000000     1.675000000
C    -6.038000000    -3.758000000     0.989000000
H    -6.758000000    -3.067000000     1.420000000
C    -6.336000000    -4.443000000    -0.164000000
H    -7.255000000    -4.389000000    -0.743000000
C    -5.283000000    -5.214000000    -0.685000000
H    -5.343000000    -5.822000000    -1.584000000
C    -4.083000000    -5.451000000    -0.019000000
O    -3.125000000    -6.237000000    -0.529000000
C    -2.114000000    -5.770000000    -1.328000000
C    -0.912000000    -6.415000000    -1.337000000
H    -0.801000000    -7.310000000    -0.730000000
C     0.165000000    -5.883000000    -2.021000000
O     1.348000000    -6.476000000    -1.772000000
C     2.618000000    -6.115000000    -2.155000000
C     3.075000000    -6.485000000    -3.465000000
H     2.458000000    -7.103000000    -4.112000000
C     4.390000000    -6.212000000    -3.798000000
H     4.731000000    -6.498000000    -4.789000000
C     5.250000000    -5.454000000    -2.985000000
H     6.264000000    -5.246000000    -3.316000000
C     4.732000000    -5.040000000    -1.728000000
C     3.392000000    -5.341000000    -1.339000000
H     2.999000000    -5.106000000    -0.354000000
O    -3.025000000    -6.155000000     5.353000000
H    -2.366000000    -6.239000000     4.664000000
H    -2.932000000    -5.255000000     5.665000000
O    -0.963000000    -6.718000000     2.943000000
H    -0.445000000    -6.031000000     2.523000000
H    -1.336000000    -7.216000000     2.216000000
O     3.091000000    -8.654000000     4.497000000
H     2.771000000    -9.203000000     3.781000000
H     2.732000000    -7.786000000     4.311000000
O     2.189000000    -6.113000000     4.181000000
H     1.524000000    -6.112000000     3.492000000
H     2.810000000    -5.436000000     3.915000000
O     4.821000000    -5.681000000     1.586000000
H     5.235000000    -5.214000000     0.860000000
H     4.011000000    -5.198000000     1.751000000
O     5.315000000    -8.366000000     1.269000000
H     5.099000000    -7.448000000     1.434000000
H     5.638000000    -8.691000000     2.109000000
O     0.341000000    -5.675000000     6.116000000
H     0.910000000    -5.912000000     5.384000000
H     0.909000000    -5.187000000     6.713000000
O     1.140000000    -7.675000000     0.986000000
H     0.218000000    -7.857000000     1.166000000
H     1.212000000    -6.722000000     1.036000000
O     7.568000000    -3.270000000     3.945000000
H     6.755000000    -2.765000000     3.925000000
H     7.335000000    -4.083000000     4.392000000
O     2.083000000    -9.902000000     2.412000000
H     1.427000000   -10.581000000     2.258000000
H     1.785000000    -9.158000000     1.889000000
O    -1.505000000    -9.018000000     1.183000000
H    -2.272000000    -9.038000000     0.610000000
H    -1.343000000    -9.937000000     1.398000000
O     3.796000000    -3.825000000     4.409000000
H     3.566000000    -3.944000000     3.487000000
H     3.131000000    -3.225000000     4.746000000
O     5.593000000    -5.846000000     4.345000000
H     5.556000000    -5.778000000     3.391000000
H     5.020000000    -5.146000000     4.658000000
O     1.550000000    -0.873000000     4.336000000
H     1.487000000    -0.672000000     3.402000000
H     0.966000000    -1.621000000     4.459000000
O    -0.217000000    -3.128000000     4.930000000
H    -0.331000000    -4.002000000     5.303000000
H    -1.018000000    -2.976000000     4.428000000
O    -1.020000000    -8.829000000     4.506000000
H    -1.328000000    -7.994000000     4.154000000
H    -1.526000000    -9.489000000     4.033000000
O     3.306000000    -8.911000000    -0.690000000
H     2.493000000    -8.418000000    -0.800000000
H     3.668000000    -8.595000000     0.138000000
O     2.162000000    -4.123000000     7.608000000
H     3.008000000    -4.569000000     7.636000000
H     1.825000000    -4.192000000     8.502000000
O     1.887000000    -0.763000000     7.141000000
H     1.750000000    -1.704000000     7.250000000
H     1.959000000    -0.640000000     6.194000000
