201
-1221.69014
C    -1.489000000     0.590000000     5.187000000
H    -2.508000000     0.919000000     5.005000000
C    -0.449000000     1.236000000     4.523000000
C     0.873000000     0.913000000     4.937000000
H     1.719000000     1.438000000     4.500000000
C    -0.690000000     2.303000000     3.403000000
O    -1.994000000     2.940000000     3.535000000
H    -0.754000000     1.899000000     2.382000000
O     0.368000000     3.265000000     3.502000000
C     0.893000000     3.751000000     2.322000000
C     2.139000000     3.197000000     1.949000000
H     2.650000000     2.608000000     2.706000000
C     2.698000000     3.502000000     0.712000000
O     3.833000000     2.821000000     0.431000000
C     1.973000000     4.269000000    -0.152000000
C     2.535000000     4.626000000    -1.627000000
H     2.125000000     5.583000000    -1.957000000
C     2.156000000     3.559000000    -2.582000000
C     0.975000000     3.711000000    -3.380000000
H     0.330000000     4.583000000    -3.298000000
H     3.623000000     4.707000000    -1.595000000
C     0.771000000     4.920000000     0.200000000
H     0.231000000     5.563000000    -0.489000000
C     0.182000000     4.529000000     1.463000000
C    -1.186000000     5.127000000     1.753000000
H    -1.340000000     6.102000000     1.286000000
H    -1.243000000     5.446000000     2.795000000
C    -2.287000000     4.171000000     1.456000000
C    -2.768000000     4.088000000     0.100000000
H    -2.487000000     4.811000000    -0.661000000
C    -2.729000000     3.186000000     2.401000000
C    -3.660000000     2.297000000     1.981000000
H    -3.890000000     1.524000000     2.709000000
C    -4.229000000     2.292000000     0.803000000
O    -4.898000000     1.169000000     0.424000000
C    -4.060000000     0.202000000    -0.221000000
C    -4.140000000    -1.184000000     0.299000000
C    -3.370000000    -2.240000000    -0.145000000
H    -2.763000000    -2.084000000    -1.033000000
C    -4.850000000    -1.366000000     1.488000000
H    -5.529000000    -0.615000000     1.883000000
O    -4.485000000     0.173000000    -1.656000000
H    -3.022000000     0.565000000    -0.218000000
C    -3.751000000     3.162000000    -0.184000000
C    -4.365000000     3.192000000    -1.546000000
H    -4.628000000     4.207000000    -1.849000000
H    -5.376000000     2.784000000    -1.479000000
C    -3.593000000     2.298000000    -2.515000000
C    -2.726000000     2.891000000    -3.460000000
H    -2.684000000     3.969000000    -3.591000000
C    -3.762000000     0.883000000    -2.501000000
C    -2.963000000     0.124000000    -3.333000000
H    -3.078000000    -0.956000000    -3.285000000
C    -2.039000000     0.699000000    -4.211000000
O    -1.297000000    -0.159000000    -4.951000000
C     0.037000000    -0.498000000    -4.497000000
C     0.453000000    -1.992000000    -4.643000000
C    -0.494000000    -3.031000000    -4.474000000
H    -1.538000000    -2.743000000    -4.380000000
C     1.794000000    -2.416000000    -4.869000000
H     2.614000000    -1.703000000    -4.916000000
O     1.019000000     0.407000000    -5.080000000
H    -0.023000000    -0.380000000    -3.405000000
C    -1.881000000     2.119000000    -4.291000000
C    -0.724000000     2.734000000    -5.060000000
H    -0.947000000     3.727000000    -5.456000000
H    -0.577000000     2.114000000    -5.946000000
C     0.557000000     2.637000000    -4.193000000
C     1.395000000     1.537000000    -4.391000000
C     2.625000000     1.445000000    -3.702000000
H     3.266000000     0.567000000    -3.717000000
C     2.936000000     2.420000000    -2.772000000
O     4.033000000     2.216000000    -1.916000000
C     3.735000000     1.740000000    -0.512000000
H     2.727000000     1.311000000    -0.612000000
C     4.558000000     0.521000000    -0.112000000
C     4.645000000     0.376000000     1.261000000
H     4.266000000     1.136000000     1.940000000
C     4.836000000    -0.523000000    -1.071000000
H     4.477000000    -0.512000000    -2.096000000
C     5.560000000    -1.586000000    -0.547000000
O     5.914000000    -2.702000000    -1.317000000
C     5.756000000    -1.763000000     0.845000000
H     6.166000000    -2.686000000     1.249000000
C     5.324000000    -0.725000000     1.730000000
O     5.536000000    -1.045000000     3.081000000
C     5.039000000    -0.259000000     3.992000000
C     3.941000000    -0.647000000     4.696000000
H     3.435000000    -1.539000000     4.336000000
C     5.635000000     0.971000000     4.372000000
H     6.488000000     1.191000000     3.735000000
C     5.181000000     1.749000000     5.389000000
H     5.566000000     2.703000000     5.739000000
C     4.188000000     1.192000000     6.149000000
H     3.838000000     1.602000000     7.093000000
C     3.490000000     0.113000000     5.731000000
O     2.317000000    -0.340000000     6.351000000
C     1.072000000    -0.050000000     5.960000000
C    -0.043000000    -0.687000000     6.573000000
H     0.161000000    -1.364000000     7.399000000
C    -1.329000000    -0.393000000     6.152000000
O    -2.342000000    -1.004000000     6.843000000
C    -3.636000000    -1.041000000     6.302000000
C    -3.892000000    -1.736000000     5.119000000
H    -3.121000000    -2.415000000     4.765000000
C    -4.629000000    -0.251000000     6.861000000
H    -4.515000000     0.305000000     7.788000000
C    -5.890000000    -0.180000000     6.186000000
H    -6.668000000     0.436000000     6.630000000
C    -6.096000000    -0.975000000     5.093000000
H    -7.121000000    -1.083000000     4.749000000
C    -5.057000000    -1.677000000     4.472000000
O    -5.290000000    -2.618000000     3.489000000
C    -4.726000000    -2.518000000     2.244000000
C    -4.047000000    -3.606000000     1.684000000
H    -3.919000000    -4.566000000     2.177000000
C    -3.480000000    -3.489000000     0.439000000
O    -2.891000000    -4.607000000    -0.066000000
C    -3.059000000    -4.967000000    -1.361000000
C    -1.984000000    -4.990000000    -2.188000000
H    -0.948000000    -4.723000000    -1.996000000
C    -4.385000000    -5.197000000    -1.802000000
H    -5.211000000    -5.279000000    -1.100000000
C    -4.600000000    -5.531000000    -3.141000000
H    -5.577000000    -5.866000000    -3.480000000
C    -3.510000000    -5.582000000    -4.009000000
H    -3.703000000    -5.845000000    -5.046000000
C    -2.192000000    -5.286000000    -3.550000000
O    -1.141000000    -5.337000000    -4.427000000
C    -0.165000000    -4.354000000    -4.542000000
C     1.145000000    -4.681000000    -4.871000000
H     1.390000000    -5.725000000    -5.051000000
C     2.123000000    -3.703000000    -5.073000000
O     3.451000000    -4.123000000    -5.219000000
C     4.638000000    -3.531000000    -4.711000000
C     5.684000000    -2.998000000    -5.459000000
H     5.641000000    -3.078000000    -6.542000000
C     6.855000000    -2.553000000    -4.840000000
H     7.741000000    -2.271000000    -5.401000000
C     6.918000000    -2.514000000    -3.449000000
H     7.745000000    -2.075000000    -2.898000000
C     5.803000000    -2.850000000    -2.671000000
C     4.690000000    -3.408000000    -3.301000000
H     3.891000000    -3.687000000    -2.619000000
O    -0.391000000    -5.334000000     1.332000000
H     0.399000000    -5.163000000     0.821000000
H    -0.912000000    -5.917000000     0.780000000
O     0.060000000    -9.106000000     1.549000000
H     0.833000000    -8.721000000     1.136000000
H    -0.293000000    -8.405000000     2.097000000
O     5.620000000    -6.487000000     0.362000000
H     6.234000000    -5.876000000    -0.045000000
H     4.819000000    -5.977000000     0.483000000
O    -0.396000000    -8.368000000    -1.488000000
H    -1.337000000    -8.223000000    -1.580000000
H    -0.325000000    -9.213000000    -1.044000000
O    -0.276000000    -3.987000000     5.238000000
H    -0.422000000    -3.218000000     4.687000000
H     0.649000000    -3.936000000     5.479000000
O     3.905000000    -8.257000000     5.174000000
H     3.433000000    -8.175000000     6.003000000
H     3.514000000    -7.591000000     4.608000000
O     3.041000000    -8.809000000    -3.612000000
H     2.570000000    -8.055000000    -3.258000000
H     3.571000000    -8.447000000    -4.323000000
O     7.885000000    -7.900000000    -0.408000000
H     7.277000000    -7.338000000     0.072000000
H     7.761000000    -7.659000000    -1.326000000
O     7.387000000    -4.826000000    -0.439000000
H     7.910000000    -4.651000000    -1.221000000
H     7.086000000    -3.963000000    -0.154000000
O     4.421000000    -8.733000000     1.424000000
H     4.890000000    -8.012000000     1.005000000
H     5.107000000    -9.357000000     1.664000000
O     3.283000000    -6.346000000     3.338000000
H     3.678000000    -5.829000000     2.637000000
H     2.992000000    -7.150000000     2.908000000
O     5.907000000    -4.154000000     3.178000000
H     5.258000000    -4.291000000     2.487000000
H     5.699000000    -3.291000000     3.534000000
O     2.191000000    -7.904000000     0.522000000
H     3.009000000    -8.387000000     0.645000000
H     2.463000000    -6.990000000     0.437000000
O     2.101000000    -6.578000000    -2.334000000
H     2.443000000    -6.057000000    -1.608000000
H     1.345000000    -7.035000000    -1.965000000
O     7.352000000    -6.148000000     2.335000000
H     6.679000000    -6.519000000     1.765000000
H     6.903000000    -5.450000000     2.812000000
O    -1.251000000    -2.847000000     3.120000000
H    -1.478000000    -2.211000000     2.441000000
H    -0.989000000    -3.630000000     2.636000000
O     2.487000000    -4.360000000     5.408000000
H     2.609000000    -4.915000000     4.638000000
H     3.059000000    -4.743000000     6.072000000
O    -0.823000000    -6.875000000     3.601000000
H    -0.743000000    -6.171000000     2.958000000
H    -1.163000000    -6.445000000     4.386000000
O     6.833000000    -5.370000000     5.577000000
H     7.570000000    -4.815000000     5.832000000
H     6.627000000    -5.097000000     4.683000000
