201
-1258.71233
C    -0.552000000     0.773000000     4.271000000
H    -1.403000000     0.322000000     3.766000000
C    -0.170000000     2.074000000     3.995000000
C     0.876000000     2.564000000     4.762000000
H     1.096000000     3.622000000     4.645000000
C    -0.914000000     2.816000000     2.936000000
O    -2.296000000     2.710000000     3.226000000
H    -0.698000000     2.307000000     1.985000000
O    -0.630000000     4.239000000     2.795000000
C    -0.258000000     4.638000000     1.526000000
C     1.077000000     4.483000000     1.216000000
H     1.795000000     4.239000000     1.996000000
C     1.487000000     4.649000000    -0.103000000
O     2.723000000     4.142000000    -0.439000000
C     0.526000000     4.897000000    -1.107000000
C     0.785000000     4.967000000    -2.605000000
H     0.043000000     5.573000000    -3.129000000
C     0.741000000     3.528000000    -3.301000000
C    -0.463000000     3.120000000    -3.906000000
H    -1.321000000     3.786000000    -3.885000000
H     1.721000000     5.478000000    -2.841000000
C    -0.839000000     4.959000000    -0.820000000
H    -1.588000000     5.133000000    -1.588000000
C    -1.215000000     4.784000000     0.536000000
C    -2.683000000     4.758000000     0.992000000
H    -3.306000000     5.464000000     0.438000000
H    -2.756000000     5.160000000     2.004000000
C    -3.256000000     3.382000000     1.041000000
C    -3.950000000     2.997000000    -0.117000000
H    -3.982000000     3.720000000    -0.928000000
C    -3.107000000     2.454000000     2.159000000
C    -3.683000000     1.209000000     2.055000000
H    -3.493000000     0.424000000     2.784000000
C    -4.416000000     0.858000000     0.939000000
O    -4.811000000    -0.432000000     0.853000000
C    -4.007000000    -1.443000000     0.104000000
C    -3.982000000    -2.720000000     0.911000000
C    -3.831000000    -3.929000000     0.192000000
H    -3.601000000    -3.869000000    -0.869000000
C    -4.130000000    -2.752000000     2.310000000
H    -4.268000000    -1.824000000     2.858000000
O    -4.655000000    -1.485000000    -1.153000000
H    -2.998000000    -1.043000000    -0.079000000
C    -4.555000000     1.740000000    -0.159000000
C    -5.263000000     1.370000000    -1.411000000
H    -5.730000000     2.248000000    -1.863000000
H    -6.113000000     0.766000000    -1.085000000
C    -4.332000000     0.600000000    -2.402000000
C    -3.633000000     1.268000000    -3.439000000
H    -3.840000000     2.322000000    -3.609000000
C    -4.133000000    -0.741000000    -2.236000000
C    -3.351000000    -1.434000000    -3.162000000
H    -3.214000000    -2.496000000    -2.976000000
C    -2.507000000    -0.747000000    -4.051000000
O    -1.462000000    -1.450000000    -4.566000000
C    -0.174000000    -1.201000000    -3.961000000
C     0.585000000    -2.543000000    -3.687000000
C    -0.040000000    -3.681000000    -3.263000000
H    -1.121000000    -3.750000000    -3.180000000
C     1.935000000    -2.627000000    -3.924000000
H     2.480000000    -1.726000000    -4.195000000
O     0.568000000    -0.312000000    -4.824000000
H    -0.309000000    -0.762000000    -2.961000000
C    -2.684000000     0.591000000    -4.186000000
C    -1.805000000     1.318000000    -5.229000000
H    -2.336000000     2.192000000    -5.611000000
H    -1.580000000     0.728000000    -6.120000000
C    -0.562000000     1.826000000    -4.518000000
C     0.554000000     1.022000000    -4.481000000
C     1.753000000     1.424000000    -3.798000000
H     2.705000000     0.902000000    -3.851000000
C     1.870000000     2.667000000    -3.193000000
O     2.964000000     2.850000000    -2.424000000
C     2.755000000     2.803000000    -0.928000000
H     1.907000000     2.127000000    -0.745000000
C     4.028000000     2.105000000    -0.414000000
C     4.460000000     2.297000000     0.928000000
H     3.892000000     2.864000000     1.661000000
C     4.692000000     1.093000000    -1.243000000
H     4.242000000     0.744000000    -2.169000000
C     5.744000000     0.415000000    -0.684000000
O     6.514000000    -0.441000000    -1.431000000
C     6.286000000     0.771000000     0.609000000
H     7.139000000     0.257000000     1.044000000
C     5.651000000     1.694000000     1.410000000
O     6.081000000     2.007000000     2.648000000
C     5.342000000     2.706000000     3.624000000
C     4.386000000     2.057000000     4.447000000
H     4.125000000     1.042000000     4.158000000
C     5.774000000     3.997000000     3.989000000
H     6.564000000     4.502000000     3.439000000
C     5.208000000     4.604000000     5.124000000
H     5.666000000     5.555000000     5.384000000
C     4.249000000     4.002000000     5.913000000
H     3.810000000     4.574000000     6.727000000
C     3.810000000     2.732000000     5.529000000
O     2.732000000     2.188000000     6.230000000
C     1.617000000     1.757000000     5.583000000
C     1.286000000     0.419000000     5.766000000
H     1.891000000    -0.241000000     6.382000000
C     0.211000000    -0.078000000     5.102000000
O    -0.160000000    -1.413000000     5.231000000
C    -1.438000000    -1.749000000     5.604000000
C    -2.113000000    -2.762000000     4.885000000
H    -1.495000000    -3.337000000     4.201000000
C    -2.211000000    -1.037000000     6.592000000
H    -1.778000000    -0.152000000     7.050000000
C    -3.561000000    -1.338000000     6.842000000
H    -4.184000000    -0.741000000     7.504000000
C    -4.190000000    -2.315000000     6.106000000
H    -5.229000000    -2.636000000     6.114000000
C    -3.456000000    -2.970000000     5.123000000
O    -4.092000000    -3.978000000     4.418000000
C    -4.078000000    -3.981000000     3.000000000
C    -3.889000000    -5.147000000     2.338000000
H    -3.903000000    -6.077000000     2.901000000
C    -3.772000000    -5.140000000     0.940000000
O    -3.420000000    -6.348000000     0.403000000
C    -2.933000000    -6.387000000    -0.896000000
C    -1.562000000    -6.316000000    -1.218000000
H    -0.721000000    -6.247000000    -0.533000000
C    -3.928000000    -6.452000000    -1.848000000
H    -4.934000000    -6.559000000    -1.451000000
C    -3.567000000    -6.312000000    -3.204000000
H    -4.276000000    -6.234000000    -4.024000000
C    -2.250000000    -6.081000000    -3.497000000
H    -1.907000000    -5.859000000    -4.504000000
C    -1.249000000    -6.236000000    -2.548000000
O     0.084000000    -6.064000000    -2.882000000
C     0.679000000    -4.896000000    -3.205000000
C     2.071000000    -4.909000000    -3.360000000
H     2.688000000    -5.773000000    -3.128000000
C     2.708000000    -3.727000000    -3.704000000
O     4.029000000    -3.817000000    -3.932000000
C     4.958000000    -2.805000000    -3.860000000
C     5.841000000    -2.650000000    -4.964000000
H     5.732000000    -3.211000000    -5.889000000
C     6.857000000    -1.709000000    -4.788000000
H     7.560000000    -1.561000000    -5.603000000
C     7.019000000    -0.951000000    -3.666000000
H     7.867000000    -0.275000000    -3.596000000
C     6.217000000    -1.188000000    -2.510000000
C     5.133000000    -2.051000000    -2.687000000
H     4.451000000    -2.260000000    -1.867000000
O     1.752000000    -6.771000000     1.293000000
H     1.328000000    -6.068000000     1.786000000
H     1.819000000    -6.431000000     0.401000000
O     6.057000000    -2.448000000     1.158000000
H     5.861000000    -2.970000000     0.380000000
H     6.847000000    -1.960000000     0.927000000
O     7.671000000    -3.463000000     3.814000000
H     6.974000000    -3.321000000     3.173000000
H     8.203000000    -4.164000000     3.439000000
O     5.039000000    -4.762000000     2.309000000
H     5.033000000    -3.818000000     2.151000000
H     4.695000000    -4.858000000     3.197000000
O     0.292000000    -5.838000000     6.057000000
H    -0.044000000    -6.127000000     6.905000000
H     0.710000000    -4.996000000     6.240000000
O     1.646000000    -3.581000000     6.595000000
H     1.932000000    -3.267000000     5.737000000
H     2.336000000    -3.301000000     7.195000000
O     3.538000000    -5.720000000     7.666000000
H     2.908000000    -5.569000000     6.961000000
H     4.079000000    -6.445000000     7.353000000
O     5.255000000    -6.222000000    -0.123000000
H     5.228000000    -6.080000000     0.823000000
H     4.546000000    -6.843000000    -0.292000000
O    -0.139000000    -2.351000000     8.729000000
H     0.273000000    -2.997000000     8.155000000
H    -0.663000000    -2.872000000     9.338000000
O    -1.088000000    -6.476000000     3.589000000
H    -0.660000000    -5.933000000     2.927000000
H    -0.527000000    -6.400000000     4.360000000
O    -0.766000000    -9.438000000     5.016000000
H     0.043000000    -9.695000000     4.574000000
H    -1.191000000    -8.836000000     4.405000000
O     4.935000000    -2.236000000     3.755000000
H     5.507000000    -2.203000000     2.988000000
H     4.131000000    -2.647000000     3.437000000
O     2.048000000    -9.592000000     4.476000000
H     1.832000000    -9.189000000     5.316000000
H     2.819000000    -9.115000000     4.171000000
O     2.495000000    -5.692000000     4.259000000
H     1.716000000    -5.935000000     4.759000000
H     2.273000000    -4.847000000     3.868000000
O     6.131000000    -0.365000000     5.436000000
H     5.458000000    -0.571000000     4.787000000
H     5.857000000    -0.836000000     6.223000000
O     3.606000000    -7.963000000    -1.409000000
H     3.078000000    -7.963000000    -2.208000000
H     4.151000000    -8.746000000    -1.482000000
O     3.630000000    -7.752000000     2.941000000
H     3.006000000    -7.514000000     2.255000000
H     3.571000000    -7.039000000     3.577000000
O     6.593000000    -4.631000000     6.494000000
H     5.956000000    -4.376000000     5.826000000
H     7.137000000    -3.852000000     6.615000000
O     0.684000000    -9.334000000     0.287000000
H    -0.240000000    -9.089000000     0.344000000
H     1.135000000    -8.702000000     0.847000000
