201
-1212.47734
C    -1.010000000     1.102000000     4.467000000
H    -1.871000000     0.605000000     4.027000000
C    -0.541000000     2.366000000     4.090000000
C     0.649000000     2.826000000     4.698000000
H     1.087000000     3.736000000     4.296000000
C    -1.138000000     3.163000000     2.942000000
O    -2.594000000     3.105000000     3.090000000
H    -0.775000000     2.596000000     2.072000000
O    -0.556000000     4.495000000     2.721000000
C    -0.209000000     4.612000000     1.396000000
C     1.148000000     4.455000000     1.081000000
H     1.849000000     4.244000000     1.884000000
C     1.526000000     4.375000000    -0.256000000
O     2.785000000     4.074000000    -0.634000000
C     0.533000000     4.529000000    -1.267000000
C     0.915000000     4.614000000    -2.758000000
H     0.233000000     5.299000000    -3.267000000
C     0.876000000     3.216000000    -3.410000000
C    -0.267000000     2.730000000    -4.089000000
H    -1.192000000     3.288000000    -4.208000000
H     1.867000000     5.118000000    -2.935000000
C    -0.735000000     4.832000000    -0.867000000
H    -1.430000000     5.112000000    -1.655000000
C    -1.193000000     4.779000000     0.403000000
C    -2.714000000     4.935000000     0.736000000
H    -3.129000000     5.521000000    -0.087000000
H    -2.806000000     5.506000000     1.663000000
C    -3.382000000     3.519000000     0.809000000
C    -3.964000000     2.948000000    -0.341000000
H    -4.041000000     3.484000000    -1.284000000
C    -3.284000000     2.731000000     2.029000000
C    -3.947000000     1.481000000     2.057000000
H    -3.924000000     0.825000000     2.923000000
C    -4.563000000     1.018000000     0.900000000
O    -5.060000000    -0.259000000     0.890000000
C    -4.252000000    -1.314000000     0.258000000
C    -4.159000000    -2.678000000     0.958000000
C    -3.783000000    -3.875000000     0.296000000
H    -3.447000000    -3.796000000    -0.735000000
C    -4.160000000    -2.707000000     2.353000000
H    -4.361000000    -1.770000000     2.866000000
O    -4.648000000    -1.525000000    -1.139000000
H    -3.229000000    -0.911000000     0.235000000
C    -4.531000000     1.674000000    -0.322000000
C    -5.223000000     1.196000000    -1.621000000
H    -5.625000000     2.027000000    -2.205000000
H    -6.143000000     0.629000000    -1.471000000
C    -4.306000000     0.372000000    -2.499000000
C    -3.477000000     0.984000000    -3.410000000
H    -3.609000000     2.053000000    -3.552000000
C    -4.034000000    -0.949000000    -2.162000000
C    -3.021000000    -1.692000000    -2.783000000
H    -2.909000000    -2.734000000    -2.497000000
C    -2.228000000    -1.060000000    -3.775000000
O    -1.138000000    -1.769000000    -4.219000000
C     0.216000000    -1.459000000    -3.801000000
C     0.928000000    -2.757000000    -3.646000000
C     0.295000000    -3.964000000    -3.277000000
H    -0.777000000    -3.983000000    -3.100000000
C     2.377000000    -2.771000000    -3.854000000
H     2.926000000    -1.912000000    -4.231000000
O     0.902000000    -0.714000000    -4.823000000
H     0.206000000    -0.930000000    -2.837000000
C    -2.431000000     0.280000000    -4.073000000
C    -1.568000000     0.947000000    -5.163000000
H    -2.198000000     1.618000000    -5.751000000
H    -1.205000000     0.158000000    -5.825000000
C    -0.299000000     1.472000000    -4.575000000
C     0.873000000     0.673000000    -4.515000000
C     2.014000000     1.130000000    -3.830000000
H     2.928000000     0.548000000    -3.737000000
C     2.030000000     2.364000000    -3.308000000
O     3.155000000     2.659000000    -2.590000000
C     3.073000000     2.768000000    -1.178000000
H     2.153000000     2.198000000    -0.981000000
C     4.157000000     2.003000000    -0.354000000
C     4.646000000     2.509000000     0.832000000
H     4.370000000     3.479000000     1.237000000
C     4.620000000     0.827000000    -0.861000000
H     4.236000000     0.461000000    -1.810000000
C     5.694000000     0.150000000    -0.177000000
O     6.171000000    -1.115000000    -0.632000000
C     6.209000000     0.709000000     0.947000000
H     6.875000000     0.146000000     1.596000000
C     5.647000000     1.897000000     1.511000000
O     6.169000000     2.357000000     2.708000000
C     5.447000000     3.084000000     3.584000000
C     4.577000000     2.396000000     4.507000000
H     4.477000000     1.313000000     4.497000000
C     5.345000000     4.481000000     3.449000000
H     5.858000000     4.854000000     2.567000000
C     4.395000000     5.200000000     4.141000000
H     4.229000000     6.256000000     3.944000000
C     3.499000000     4.486000000     5.001000000
H     2.632000000     4.985000000     5.425000000
C     3.603000000     3.133000000     5.166000000
O     2.705000000     2.462000000     5.937000000
C     1.433000000     2.007000000     5.566000000
C     0.893000000     0.827000000     6.038000000
H     1.486000000     0.234000000     6.729000000
C    -0.329000000     0.388000000     5.446000000
O    -0.674000000    -0.901000000     5.843000000
C    -2.014000000    -1.295000000     5.825000000
C    -2.455000000    -2.278000000     4.959000000
H    -1.682000000    -2.701000000     4.323000000
C    -2.829000000    -0.738000000     6.784000000
H    -2.364000000    -0.096000000     7.527000000
C    -4.200000000    -1.109000000     6.848000000
H    -4.850000000    -0.535000000     7.502000000
C    -4.665000000    -2.155000000     6.046000000
H    -5.646000000    -2.617000000     6.134000000
C    -3.817000000    -2.704000000     5.102000000
O    -4.241000000    -3.749000000     4.388000000
C    -3.998000000    -3.846000000     3.042000000
C    -3.682000000    -5.014000000     2.348000000
H    -3.555000000    -5.902000000     2.962000000
C    -3.560000000    -5.056000000     0.968000000
O    -3.237000000    -6.242000000     0.380000000
C    -2.760000000    -6.358000000    -0.894000000
C    -1.390000000    -6.326000000    -1.247000000
H    -0.626000000    -6.250000000    -0.477000000
C    -3.677000000    -6.482000000    -1.945000000
H    -4.718000000    -6.565000000    -1.645000000
C    -3.250000000    -6.777000000    -3.249000000
H    -3.933000000    -6.966000000    -4.073000000
C    -1.903000000    -6.679000000    -3.565000000
H    -1.456000000    -6.946000000    -4.519000000
C    -1.002000000    -6.505000000    -2.579000000
O     0.411000000    -6.357000000    -2.808000000
C     1.050000000    -5.161000000    -3.136000000
C     2.375000000    -5.215000000    -3.532000000
H     2.966000000    -6.127000000    -3.533000000
C     3.047000000    -3.973000000    -3.769000000
O     4.378000000    -3.905000000    -4.166000000
C     5.228000000    -2.891000000    -3.783000000
C     6.064000000    -2.119000000    -4.597000000
H     5.914000000    -2.286000000    -5.660000000
C     6.946000000    -1.194000000    -4.147000000
H     7.560000000    -0.728000000    -4.913000000
C     7.041000000    -0.931000000    -2.797000000
H     7.724000000    -0.170000000    -2.430000000
C     6.195000000    -1.605000000    -1.926000000
C     5.269000000    -2.533000000    -2.444000000
H     4.563000000    -3.043000000    -1.794000000
O     2.208000000    -5.881000000    -0.317000000
H     2.325000000    -5.341000000     0.464000000
H     2.676000000    -5.410000000    -1.007000000
O     7.552000000    -2.627000000     1.334000000
H     6.771000000    -2.307000000     0.883000000
H     7.521000000    -3.577000000     1.224000000
O     7.740000000    -3.090000000     5.491000000
H     8.454000000    -2.565000000     5.131000000
H     7.001000000    -2.924000000     4.906000000
O     4.439000000    -5.376000000     2.663000000
H     3.655000000    -4.854000000     2.493000000
H     5.087000000    -5.047000000     2.040000000
O    -0.853000000    -6.292000000     5.129000000
H    -0.227000000    -6.640000000     5.764000000
H    -1.708000000    -6.424000000     5.539000000
O     1.184000000    -3.430000000     5.314000000
H     1.770000000    -3.279000000     4.573000000
H     0.761000000    -2.584000000     5.461000000
O     2.392000000    -4.003000000     7.970000000
H     2.381000000    -3.682000000     7.068000000
H     1.869000000    -4.804000000     7.946000000
O     6.767000000    -5.168000000     0.434000000
H     7.120000000    -6.038000000     0.623000000
H     6.192000000    -5.302000000    -0.320000000
O     1.358000000    -1.442000000     8.743000000
H     2.003000000    -1.944000000     8.243000000
H     0.542000000    -1.933000000     8.642000000
O    -0.410000000    -5.248000000     2.691000000
H     0.344000000    -4.682000000     2.856000000
H    -0.477000000    -5.792000000     3.475000000
O     1.339000000    -8.961000000     4.841000000
H     1.401000000    -9.485000000     4.042000000
H     1.350000000    -8.054000000     4.534000000
O     5.437000000    -2.775000000     4.018000000
H     5.327000000    -2.289000000     3.201000000
H     4.583000000    -3.178000000     4.175000000
O     2.648000000    -6.369000000     4.659000000
H     2.107000000    -5.586000000     4.767000000
H     3.066000000    -6.256000000     3.805000000
O     5.584000000    -0.727000000     5.716000000
H     5.174000000    -1.432000000     5.215000000
H     5.530000000    -1.018000000     6.627000000
O     4.988000000    -6.172000000    -1.454000000
H     5.275000000    -6.420000000    -2.333000000
H     4.616000000    -6.975000000    -1.089000000
O     3.791000000    -7.721000000     1.773000000
H     3.190000000    -7.398000000     1.101000000
H     4.170000000    -6.929000000     2.156000000
O    -1.262000000    -8.006000000     1.773000000
H    -1.531000000    -8.438000000     2.584000000
H    -1.040000000    -7.114000000     2.039000000
O     5.782000000    -6.498000000     4.713000000
H     5.753000000    -5.785000000     4.074000000
H     4.882000000    -6.571000000     5.031000000
O     1.337000000    -8.323000000     0.378000000
H     0.399000000    -8.491000000     0.286000000
H     1.455000000    -7.436000000     0.038000000
