201
-1209.44522
C    -0.496000000    -0.691000000     4.596000000
H    -1.451000000    -0.974000000     4.161000000
C    -0.154000000     0.656000000     4.556000000
C     1.082000000     1.083000000     4.991000000
H     1.336000000     2.137000000     5.068000000
C    -1.005000000     1.591000000     3.654000000
O    -2.451000000     1.435000000     3.879000000
H    -0.792000000     1.231000000     2.637000000
O    -0.549000000     2.965000000     3.817000000
C    -0.472000000     3.665000000     2.602000000
C     0.806000000     3.816000000     2.087000000
H     1.674000000     3.422000000     2.610000000
C     1.014000000     4.398000000     0.872000000
O     2.346000000     4.422000000     0.487000000
C    -0.049000000     4.831000000     0.120000000
C     0.170000000     5.492000000    -1.216000000
H    -0.653000000     6.154000000    -1.493000000
C     0.277000000     4.458000000    -2.328000000
C    -0.917000000     3.953000000    -2.818000000
H    -1.865000000     4.356000000    -2.470000000
H     1.043000000     6.138000000    -1.103000000
C    -1.357000000     4.759000000     0.624000000
H    -2.189000000     5.079000000     0.002000000
C    -1.538000000     4.185000000     1.874000000
C    -2.880000000     3.877000000     2.407000000
H    -3.440000000     4.599000000     1.808000000
H    -3.045000000     4.047000000     3.473000000
C    -3.424000000     2.478000000     1.955000000
C    -4.338000000     2.377000000     0.865000000
H    -4.428000000     3.250000000     0.223000000
C    -3.278000000     1.397000000     2.848000000
C    -3.883000000     0.154000000     2.538000000
H    -3.520000000    -0.655000000     3.167000000
C    -4.631000000     0.004000000     1.373000000
O    -4.869000000    -1.263000000     0.929000000
C    -4.055000000    -1.909000000    -0.085000000
C    -3.865000000    -3.406000000     0.155000000
C    -3.758000000    -4.328000000    -0.873000000
H    -3.499000000    -4.067000000    -1.897000000
C    -3.814000000    -3.833000000     1.482000000
H    -3.910000000    -3.116000000     2.293000000
O    -4.745000000    -1.820000000    -1.384000000
H    -3.117000000    -1.346000000    -0.196000000
C    -4.787000000     1.118000000     0.534000000
C    -5.505000000     0.986000000    -0.800000000
H    -5.890000000     1.988000000    -1.001000000
H    -6.366000000     0.336000000    -0.631000000
C    -4.429000000     0.547000000    -1.807000000
C    -3.782000000     1.557000000    -2.533000000
H    -4.052000000     2.572000000    -2.254000000
C    -4.184000000    -0.786000000    -2.098000000
C    -3.219000000    -1.158000000    -3.010000000
H    -2.990000000    -2.203000000    -3.205000000
C    -2.569000000    -0.210000000    -3.739000000
O    -1.502000000    -0.514000000    -4.582000000
C    -0.229000000    -0.134000000    -4.133000000
C     0.765000000    -1.262000000    -4.114000000
C     0.380000000    -2.560000000    -3.804000000
H    -0.635000000    -2.672000000    -3.430000000
C     2.066000000    -1.087000000    -4.569000000
H     2.453000000    -0.087000000    -4.744000000
O     0.303000000     1.087000000    -4.708000000
H    -0.232000000     0.049000000    -3.049000000
C    -2.865000000     1.162000000    -3.512000000
C    -2.275000000     2.325000000    -4.274000000
H    -2.965000000     3.163000000    -4.394000000
H    -2.125000000     1.996000000    -5.305000000
C    -0.988000000     2.923000000    -3.706000000
C     0.216000000     2.255000000    -4.015000000
C     1.370000000     2.646000000    -3.375000000
H     2.269000000     2.042000000    -3.475000000
C     1.440000000     3.742000000    -2.542000000
O     2.560000000     3.965000000    -1.820000000
C     2.601000000     3.369000000    -0.473000000
H     1.775000000     2.646000000    -0.400000000
C     3.938000000     2.702000000    -0.123000000
C     4.466000000     2.790000000     1.203000000
H     3.807000000     3.262000000     1.927000000
C     4.611000000     1.936000000    -1.141000000
H     4.246000000     1.859000000    -2.162000000
C     5.819000000     1.373000000    -0.794000000
O     6.666000000     0.763000000    -1.731000000
C     6.345000000     1.480000000     0.535000000
H     7.349000000     1.087000000     0.673000000
C     5.629000000     2.148000000     1.570000000
O     6.108000000     2.466000000     2.757000000
C     5.380000000     2.573000000     3.902000000
C     4.628000000     1.521000000     4.357000000
H     4.517000000     0.583000000     3.819000000
C     5.474000000     3.753000000     4.615000000
H     5.963000000     4.598000000     4.137000000
C     4.770000000     3.875000000     5.849000000
H     4.736000000     4.792000000     6.431000000
C     4.064000000     2.819000000     6.411000000
H     3.479000000     2.902000000     7.324000000
C     3.986000000     1.659000000     5.578000000
O     3.261000000     0.613000000     6.142000000
C     2.004000000     0.172000000     5.539000000
C     1.585000000    -1.129000000     5.670000000
H     2.346000000    -1.846000000     5.968000000
C     0.373000000    -1.587000000     5.173000000
O    -0.101000000    -2.870000000     5.372000000
C    -1.449000000    -3.326000000     5.343000000
C    -1.835000000    -4.282000000     4.374000000
H    -1.060000000    -4.606000000     3.685000000
C    -2.481000000    -2.767000000     6.148000000
H    -2.279000000    -1.956000000     6.842000000
C    -3.790000000    -3.226000000     6.042000000
H    -4.602000000    -2.828000000     6.645000000
C    -4.158000000    -4.167000000     5.064000000
H    -5.197000000    -4.437000000     4.895000000
C    -3.146000000    -4.705000000     4.187000000
O    -3.510000000    -5.515000000     3.152000000
C    -3.634000000    -5.161000000     1.812000000
C    -3.619000000    -6.124000000     0.796000000
H    -3.401000000    -7.159000000     1.048000000
C    -3.534000000    -5.678000000    -0.515000000
O    -3.271000000    -6.581000000    -1.569000000
C    -2.492000000    -6.249000000    -2.691000000
C    -1.168000000    -5.768000000    -2.492000000
H    -0.826000000    -5.777000000    -1.460000000
C    -2.995000000    -6.436000000    -3.994000000
H    -3.983000000    -6.859000000    -4.157000000
C    -2.223000000    -6.058000000    -5.055000000
H    -2.612000000    -6.177000000    -6.063000000
C    -0.989000000    -5.453000000    -4.819000000
H    -0.348000000    -5.236000000    -5.670000000
C    -0.405000000    -5.311000000    -3.590000000
O     0.883000000    -4.839000000    -3.390000000
C     1.254000000    -3.599000000    -3.803000000
C     2.575000000    -3.435000000    -4.228000000
H     3.228000000    -4.301000000    -4.290000000
C     3.000000000    -2.146000000    -4.543000000
O     4.324000000    -2.043000000    -5.017000000
C     5.127000000    -0.914000000    -4.658000000
C     5.782000000    -0.233000000    -5.665000000
H     5.637000000    -0.486000000    -6.712000000
C     6.547000000     0.834000000    -5.344000000
H     7.186000000     1.412000000    -6.006000000
C     6.627000000     1.310000000    -4.017000000
H     7.085000000     2.266000000    -3.775000000
C     6.180000000     0.512000000    -3.028000000
C     5.341000000    -0.501000000    -3.285000000
H     4.835000000    -1.097000000    -2.531000000
O     5.315000000    -2.923000000     5.536000000
H     5.044000000    -2.576000000     6.386000000
H     4.526000000    -3.336000000     5.183000000
O     5.748000000    -4.324000000    -1.156000000
H     6.144000000    -5.184000000    -1.013000000
H     5.414000000    -4.069000000    -0.296000000
O     5.476000000    -1.617000000     2.448000000
H     5.620000000    -1.786000000     3.379000000
H     4.733000000    -2.174000000     2.216000000
O     4.136000000    -8.453000000     0.185000000
H     3.704000000    -7.812000000    -0.379000000
H     4.023000000    -8.108000000     1.071000000
O     8.122000000    -2.805000000     6.140000000
H     8.790000000    -3.280000000     5.647000000
H     7.294000000    -3.073000000     5.741000000
O     3.522000000    -7.269000000     2.399000000
H     3.881000000    -7.396000000     3.277000000
H     3.555000000    -6.322000000     2.261000000
O     1.711000000    -9.881000000     2.572000000
H     2.138000000    -9.025000000     2.595000000
H     0.836000000    -9.722000000     2.927000000
O     3.510000000    -4.770000000     4.346000000
H     3.641000000    -4.381000000     3.481000000
H     2.604000000    -5.077000000     4.336000000
O     4.606000000    -6.283000000     6.759000000
H     5.160000000    -5.889000000     7.432000000
H     4.068000000    -5.560000000     6.437000000
O     6.600000000    -5.692000000     4.424000000
H     6.620000000    -6.552000000     4.845000000
H     5.879000000    -5.232000000     4.853000000
O     6.848000000    -4.479000000    -3.781000000
H     7.215000000    -5.341000000    -3.586000000
H     6.426000000    -4.209000000    -2.965000000
O    -0.832000000    -8.414000000     1.514000000
H    -0.244000000    -7.667000000     1.620000000
H    -1.250000000    -8.514000000     2.369000000
O     0.491000000    -6.341000000     2.332000000
H     1.184000000    -5.746000000     2.044000000
H     0.534000000    -6.314000000     3.287000000
O     5.870000000    -4.802000000     1.723000000
H     5.117000000    -4.214000000     1.792000000
H     6.258000000    -4.796000000     2.598000000
O     8.378000000    -1.777000000     1.038000000
H     7.482000000    -1.628000000     1.341000000
H     8.276000000    -2.128000000     0.153000000
O     0.914000000    -6.498000000     5.113000000
H     1.310000000    -6.325000000     5.967000000
H     0.269000000    -7.185000000     5.283000000
O     2.978000000    -6.330000000    -1.105000000
H     2.976000000    -5.999000000    -0.207000000
H     2.770000000    -5.566000000    -1.643000000
O     7.332000000    -6.434000000     0.032000000
H     7.751000000    -7.142000000     0.522000000
H     6.596000000    -6.166000000     0.583000000
O     2.252000000    -8.046000000    -3.220000000
H     2.383000000    -7.446000000    -3.954000000
H     2.719000000    -7.638000000    -2.490000000
