201
-1254.60680
C    -0.611000000    -0.293000000     4.470000000
H    -1.476000000    -0.594000000     3.886000000
C    -0.233000000     1.035000000     4.533000000
C     0.989000000     1.406000000     5.112000000
H     1.425000000     2.398000000     5.018000000
C    -1.083000000     2.080000000     3.691000000
O    -2.480000000     2.009000000     3.950000000
H    -0.853000000     1.708000000     2.681000000
O    -0.588000000     3.395000000     3.716000000
C    -0.371000000     4.025000000     2.521000000
C     0.935000000     4.019000000     2.051000000
H     1.678000000     3.500000000     2.651000000
C     1.208000000     4.488000000     0.761000000
O     2.479000000     4.249000000     0.324000000
C     0.173000000     5.039000000    -0.063000000
C     0.362000000     5.525000000    -1.522000000
H    -0.331000000     6.301000000    -1.852000000
C     0.379000000     4.328000000    -2.439000000
C    -0.766000000     3.942000000    -3.020000000
H    -1.671000000     4.525000000    -2.872000000
H     1.322000000     6.037000000    -1.615000000
C    -1.087000000     4.926000000     0.402000000
H    -1.928000000     5.262000000    -0.200000000
C    -1.420000000     4.476000000     1.680000000
C    -2.825000000     4.316000000     2.101000000
H    -3.420000000     4.962000000     1.453000000
H    -3.081000000     4.609000000     3.121000000
C    -3.425000000     2.905000000     1.921000000
C    -4.057000000     2.679000000     0.741000000
H    -4.322000000     3.513000000     0.097000000
C    -3.303000000     1.847000000     2.861000000
C    -3.861000000     0.629000000     2.645000000
H    -3.931000000    -0.148000000     3.402000000
C    -4.456000000     0.344000000     1.404000000
O    -4.836000000    -1.007000000     1.156000000
C    -3.988000000    -1.671000000     0.178000000
C    -3.853000000    -3.173000000     0.476000000
C    -3.710000000    -4.124000000    -0.551000000
H    -3.606000000    -3.830000000    -1.592000000
C    -3.802000000    -3.618000000     1.758000000
H    -3.898000000    -2.960000000     2.618000000
O    -4.623000000    -1.573000000    -1.073000000
H    -3.023000000    -1.144000000     0.179000000
C    -4.614000000     1.385000000     0.509000000
C    -5.400000000     1.219000000    -0.759000000
H    -5.868000000     2.121000000    -1.159000000
H    -6.128000000     0.437000000    -0.533000000
C    -4.483000000     0.725000000    -1.850000000
C    -3.856000000     1.679000000    -2.666000000
H    -3.932000000     2.756000000    -2.544000000
C    -4.180000000    -0.623000000    -1.986000000
C    -3.343000000    -1.000000000    -3.042000000
H    -2.990000000    -2.024000000    -2.958000000
C    -2.636000000    -0.019000000    -3.780000000
O    -1.621000000    -0.511000000    -4.513000000
C    -0.320000000    -0.144000000    -3.981000000
C     0.665000000    -1.374000000    -4.010000000
C     0.207000000    -2.687000000    -3.747000000
H    -0.850000000    -2.901000000    -3.612000000
C     2.030000000    -1.276000000    -4.379000000
H     2.376000000    -0.302000000    -4.715000000
O     0.216000000     0.905000000    -4.764000000
H    -0.490000000     0.137000000    -2.931000000
C    -2.986000000     1.309000000    -3.690000000
C    -2.225000000     2.469000000    -4.501000000
H    -2.956000000     3.281000000    -4.504000000
H    -2.195000000     2.203000000    -5.560000000
C    -0.863000000     2.833000000    -3.867000000
C     0.304000000     2.076000000    -4.087000000
C     1.493000000     2.471000000    -3.469000000
H     2.412000000     1.926000000    -3.671000000
C     1.541000000     3.559000000    -2.637000000
O     2.747000000     3.760000000    -1.914000000
C     2.732000000     3.166000000    -0.574000000
H     1.932000000     2.435000000    -0.384000000
C     4.003000000     2.481000000    -0.179000000
C     4.350000000     2.354000000     1.164000000
H     3.686000000     2.735000000     1.936000000
C     4.726000000     1.851000000    -1.127000000
H     4.446000000     1.920000000    -2.175000000
C     5.748000000     0.991000000    -0.804000000
O     6.439000000     0.408000000    -1.801000000
C     6.203000000     0.928000000     0.527000000
H     7.143000000     0.445000000     0.784000000
C     5.528000000     1.692000000     1.502000000
O     6.096000000     1.594000000     2.766000000
C     5.427000000     2.043000000     3.881000000
C     4.588000000     1.181000000     4.583000000
H     4.484000000     0.156000000     4.236000000
C     5.653000000     3.314000000     4.309000000
H     6.391000000     3.930000000     3.800000000
C     4.933000000     3.789000000     5.392000000
H     5.045000000     4.793000000     5.793000000
C     4.027000000     2.961000000     6.068000000
H     3.525000000     3.421000000     6.916000000
C     3.873000000     1.662000000     5.659000000
O     2.998000000     0.814000000     6.257000000
C     1.789000000     0.474000000     5.712000000
C     1.331000000    -0.839000000     5.739000000
H     1.965000000    -1.552000000     6.260000000
C     0.215000000    -1.242000000     5.024000000
O    -0.051000000    -2.581000000     4.944000000
C    -1.250000000    -3.149000000     5.151000000
C    -1.752000000    -4.051000000     4.220000000
H    -1.152000000    -4.185000000     3.324000000
C    -2.069000000    -2.817000000     6.269000000
H    -1.712000000    -2.080000000     6.984000000
C    -3.347000000    -3.340000000     6.375000000
H    -3.961000000    -2.966000000     7.190000000
C    -3.866000000    -4.253000000     5.430000000
H    -4.876000000    -4.651000000     5.491000000
C    -3.030000000    -4.602000000     4.398000000
O    -3.544000000    -5.366000000     3.348000000
C    -3.586000000    -4.944000000     2.086000000
C    -3.515000000    -5.904000000     1.020000000
H    -3.469000000    -6.959000000     1.278000000
C    -3.595000000    -5.496000000    -0.264000000
O    -3.508000000    -6.405000000    -1.360000000
C    -2.752000000    -6.233000000    -2.495000000
C    -1.528000000    -5.638000000    -2.427000000
H    -1.065000000    -5.421000000    -1.467000000
C    -3.285000000    -6.496000000    -3.784000000
H    -4.309000000    -6.859000000    -3.764000000
C    -2.547000000    -6.223000000    -4.889000000
H    -2.924000000    -6.623000000    -5.827000000
C    -1.262000000    -5.674000000    -4.848000000
H    -0.594000000    -5.722000000    -5.704000000
C    -0.761000000    -5.370000000    -3.588000000
O     0.578000000    -5.097000000    -3.461000000
C     1.029000000    -3.807000000    -3.749000000
C     2.353000000    -3.657000000    -4.058000000
H     3.053000000    -4.489000000    -4.050000000
C     2.772000000    -2.431000000    -4.507000000
O     4.046000000    -2.340000000    -4.953000000
C     4.999000000    -1.417000000    -4.599000000
C     5.716000000    -0.798000000    -5.592000000
H     5.475000000    -1.136000000    -6.597000000
C     6.576000000     0.250000000    -5.402000000
H     7.115000000     0.699000000    -6.232000000
C     6.747000000     0.671000000    -4.084000000
H     7.496000000     1.405000000    -3.796000000
C     5.989000000     0.081000000    -3.040000000
C     5.208000000    -0.985000000    -3.286000000
H     4.783000000    -1.529000000    -2.446000000
O     5.989000000    -2.204000000     3.127000000
H     5.983000000    -1.878000000     4.027000000
H     5.064000000    -2.315000000     2.907000000
O     6.962000000    -3.253000000    -0.756000000
H     7.487000000    -2.494000000    -1.008000000
H     7.171000000    -3.393000000     0.167000000
O     8.374000000    -1.533000000     2.014000000
H     7.557000000    -1.517000000     2.513000000
H     8.404000000    -2.409000000     1.631000000
O     3.983000000    -3.304000000     6.521000000
H     4.614000000    -2.646000000     6.230000000
H     4.512000000    -3.963000000     6.970000000
O     1.571000000    -7.340000000    -2.038000000
H     1.277000000    -6.541000000    -2.476000000
H     2.008000000    -7.032000000    -1.245000000
O     1.878000000    -6.603000000     0.604000000
H     2.097000000    -5.734000000     0.938000000
H     2.366000000    -7.206000000     1.164000000
O     4.723000000    -7.744000000    -1.755000000
H     4.295000000    -7.944000000    -0.922000000
H     4.285000000    -8.309000000    -2.391000000
O     1.920000000    -6.752000000     5.617000000
H     2.391000000    -6.035000000     5.193000000
H     1.072000000    -6.375000000     5.852000000
O     2.706000000    -4.529000000     4.177000000
H     2.904000000    -4.023000000     3.389000000
H     2.186000000    -3.936000000     4.719000000
O     5.995000000    -1.579000000     5.818000000
H     5.592000000    -1.143000000     6.569000000
H     6.937000000    -1.488000000     5.965000000
O     5.638000000    -6.043000000    -3.712000000
H     5.550000000    -6.898000000    -3.291000000
H     4.978000000    -5.497000000    -3.284000000
O     5.248000000    -6.958000000     5.252000000
H     4.573000000    -7.092000000     5.917000000
H     4.840000000    -6.376000000     4.611000000
O     7.756000000    -3.895000000    -3.440000000
H     7.257000000    -4.626000000    -3.803000000
H     7.410000000    -3.784000000    -2.554000000
O     1.551000000    -3.766000000     7.626000000
H     2.455000000    -3.702000000     7.316000000
H     1.574000000    -4.456000000     8.289000000
O     0.041000000    -8.675000000     0.551000000
H     0.626000000    -7.926000000     0.662000000
H    -0.645000000    -8.542000000     1.205000000
O     5.077000000    -5.079000000     2.511000000
H     4.276000000    -4.587000000     2.330000000
H     5.625000000    -4.471000000     3.007000000
O     4.376000000    -7.660000000     1.704000000
H     4.632000000    -6.790000000     2.009000000
H     4.682000000    -8.254000000     2.389000000
O     4.182000000    -4.295000000    -1.412000000
H     3.633000000    -4.011000000    -0.681000000
H     5.046000000    -3.933000000    -1.217000000
O     6.512000000    -6.669000000     0.136000000
H     5.864000000    -7.008000000    -0.482000000
H     6.063000000    -5.954000000     0.586000000
