201
-1240.79172
C    -0.088000000    -1.798000000     4.626000000
H    -1.107000000    -2.062000000     4.354000000
C     0.406000000    -0.477000000     4.579000000
C     1.710000000    -0.278000000     4.912000000
H     2.110000000     0.730000000     4.978000000
C    -0.486000000     0.753000000     4.159000000
O    -1.827000000     0.452000000     4.585000000
H    -0.498000000     0.704000000     3.060000000
O    -0.061000000     2.005000000     4.686000000
C     0.074000000     3.032000000     3.766000000
C     1.273000000     3.192000000     3.087000000
H     2.160000000     2.696000000     3.472000000
C     1.302000000     3.917000000     1.911000000
O     2.550000000     3.993000000     1.179000000
C     0.117000000     4.454000000     1.436000000
C     0.219000000     5.351000000     0.178000000
H    -0.612000000     6.048000000     0.305000000
C     0.120000000     4.617000000    -1.198000000
C    -1.110000000     4.330000000    -1.756000000
H    -2.028000000     4.649000000    -1.270000000
H     1.165000000     5.891000000     0.255000000
C    -1.093000000     4.447000000     2.113000000
H    -1.949000000     4.998000000     1.730000000
C    -1.123000000     3.688000000     3.315000000
C    -2.495000000     3.295000000     3.807000000
H    -3.194000000     4.130000000     3.724000000
H    -2.506000000     3.165000000     4.891000000
C    -3.053000000     2.037000000     3.112000000
C    -3.879000000     2.150000000     2.001000000
H    -4.172000000     3.102000000     1.566000000
C    -2.887000000     0.795000000     3.635000000
C    -3.531000000    -0.279000000     3.069000000
H    -3.265000000    -1.243000000     3.494000000
C    -4.276000000    -0.127000000     1.950000000
O    -4.725000000    -1.236000000     1.238000000
C    -4.001000000    -1.777000000     0.142000000
C    -3.640000000    -3.248000000     0.152000000
C    -3.471000000    -3.995000000    -1.007000000
H    -3.625000000    -3.506000000    -1.965000000
C    -3.471000000    -3.912000000     1.368000000
H    -3.480000000    -3.378000000     2.314000000
O    -4.651000000    -1.369000000    -1.069000000
H    -3.065000000    -1.198000000     0.145000000
C    -4.482000000     1.098000000     1.350000000
C    -5.353000000     1.267000000     0.092000000
H    -5.879000000     2.223000000     0.055000000
H    -6.146000000     0.517000000     0.108000000
C    -4.444000000     1.101000000    -1.140000000
C    -3.920000000     2.247000000    -1.742000000
H    -4.223000000     3.193000000    -1.301000000
C    -4.068000000    -0.198000000    -1.594000000
C    -3.326000000    -0.310000000    -2.751000000
H    -3.080000000    -1.262000000    -3.214000000
C    -2.890000000     0.844000000    -3.404000000
O    -1.990000000     0.660000000    -4.443000000
C    -0.569000000     0.850000000    -4.077000000
C     0.276000000    -0.397000000    -4.524000000
C    -0.355000000    -1.574000000    -4.873000000
H    -1.436000000    -1.661000000    -4.804000000
C     1.638000000    -0.178000000    -4.829000000
H     2.034000000     0.805000000    -4.588000000
O    -0.073000000     2.082000000    -4.547000000
H    -0.566000000     0.800000000    -2.979000000
C    -3.177000000     2.105000000    -2.900000000
C    -2.606000000     3.330000000    -3.577000000
H    -3.220000000     4.233000000    -3.595000000
H    -2.540000000     2.992000000    -4.614000000
C    -1.253000000     3.638000000    -2.971000000
C    -0.115000000     2.990000000    -3.482000000
C     1.150000000     3.367000000    -2.968000000
H     2.043000000     2.929000000    -3.407000000
C     1.236000000     4.118000000    -1.830000000
O     2.452000000     4.211000000    -1.196000000
C     2.685000000     3.325000000    -0.082000000
H     1.930000000     2.526000000    -0.120000000
C     4.080000000     2.717000000    -0.188000000
C     4.694000000     2.065000000     0.940000000
H     4.230000000     2.157000000     1.919000000
C     4.732000000     2.634000000    -1.414000000
H     4.362000000     2.967000000    -2.380000000
C     5.899000000     1.916000000    -1.536000000
O     6.441000000     1.701000000    -2.815000000
C     6.569000000     1.412000000    -0.409000000
H     7.593000000     1.074000000    -0.545000000
C     5.983000000     1.585000000     0.852000000
O     6.565000000     1.225000000     2.065000000
C     5.930000000     1.080000000     3.256000000
C     5.191000000    -0.078000000     3.576000000
H     5.108000000    -0.902000000     2.872000000
C     6.026000000     2.176000000     4.086000000
H     6.503000000     3.073000000     3.700000000
C     5.420000000     2.169000000     5.366000000
H     5.456000000     2.964000000     6.107000000
C     4.793000000     0.975000000     5.692000000
H     4.333000000     0.848000000     6.669000000
C     4.674000000    -0.119000000     4.851000000
O     3.957000000    -1.185000000     5.301000000
C     2.584000000    -1.334000000     5.132000000
C     2.124000000    -2.667000000     5.132000000
H     2.885000000    -3.443000000     5.134000000
C     0.739000000    -2.877000000     5.074000000
O     0.277000000    -4.186000000     5.135000000
C    -1.066000000    -4.502000000     5.096000000
C    -1.511000000    -5.233000000     4.021000000
H    -0.749000000    -5.498000000     3.292000000
C    -1.956000000    -3.998000000     6.086000000
H    -1.571000000    -3.446000000     6.940000000
C    -3.269000000    -4.283000000     5.856000000
H    -3.991000000    -3.877000000     6.560000000
C    -3.732000000    -4.990000000     4.772000000
H    -4.790000000    -5.221000000     4.685000000
C    -2.856000000    -5.384000000     3.804000000
O    -3.203000000    -5.976000000     2.644000000
C    -3.380000000    -5.310000000     1.431000000
C    -3.124000000    -5.981000000     0.271000000
H    -3.006000000    -7.057000000     0.371000000
C    -3.116000000    -5.346000000    -0.944000000
O    -2.689000000    -6.016000000    -2.054000000
C    -2.539000000    -5.364000000    -3.336000000
C    -1.308000000    -4.936000000    -3.842000000
H    -0.369000000    -4.893000000    -3.296000000
C    -3.724000000    -5.178000000    -4.044000000
H    -4.673000000    -5.590000000    -3.711000000
C    -3.678000000    -4.557000000    -5.287000000
H    -4.543000000    -4.431000000    -5.932000000
C    -2.525000000    -4.092000000    -5.824000000
H    -2.538000000    -3.696000000    -6.836000000
C    -1.318000000    -4.313000000    -5.130000000
O    -0.070000000    -3.831000000    -5.654000000
C     0.476000000    -2.624000000    -5.369000000
C     1.839000000    -2.454000000    -5.609000000
H     2.431000000    -3.277000000    -6.001000000
C     2.380000000    -1.202000000    -5.247000000
O     3.733000000    -1.092000000    -5.497000000
C     4.385000000     0.104000000    -5.355000000
C     4.200000000     1.126000000    -6.250000000
H     3.559000000     1.014000000    -7.120000000
C     4.888000000     2.355000000    -6.048000000
H     4.766000000     3.194000000    -6.729000000
C     5.644000000     2.533000000    -4.926000000
H     6.162000000     3.471000000    -4.741000000
C     5.790000000     1.520000000    -4.004000000
C     5.142000000     0.274000000    -4.217000000
H     5.243000000    -0.503000000    -3.464000000
O     5.625000000    -3.324000000    -1.697000000
H     5.343000000    -4.064000000    -2.235000000
H     4.987000000    -3.289000000    -0.984000000
O     2.341000000    -9.568000000    -2.675000000
H     2.409000000   -10.442000000    -3.058000000
H     3.036000000    -9.065000000    -3.100000000
O     5.454000000    -3.704000000    -5.751000000
H     6.194000000    -3.851000000    -5.162000000
H     4.869000000    -3.125000000    -5.262000000
O     4.137000000    -4.047000000     2.880000000
H     3.969000000    -3.944000000     1.943000000
H     4.928000000    -3.534000000     3.039000000
O     0.583000000    -7.629000000     3.396000000
H     1.022000000    -6.837000000     3.086000000
H     1.231000000    -8.324000000     3.275000000
O     3.897000000    -6.539000000     4.605000000
H     3.809000000    -5.726000000     4.109000000
H     4.346000000    -7.137000000     4.008000000
O     4.669000000    -9.546000000     0.338000000
H     4.622000000    -9.108000000     1.188000000
H     4.285000000    -8.920000000    -0.276000000
O     1.165000000    -7.985000000     0.471000000
H     1.252000000    -7.293000000     1.127000000
H     1.983000000    -7.949000000    -0.025000000
O     1.832000000    -5.561000000     1.875000000
H     2.230000000    -5.635000000     1.007000000
H     2.152000000    -4.725000000     2.214000000
O     4.883000000    -8.379000000     2.916000000
H     5.828000000    -8.520000000     2.847000000
H     4.547000000    -9.187000000     3.303000000
O     7.759000000    -1.880000000    -0.310000000
H     7.049000000    -2.221000000    -0.854000000
H     8.420000000    -1.584000000    -0.937000000
O     6.885000000    -3.518000000     1.922000000
H     7.133000000    -2.777000000     1.370000000
H     6.771000000    -4.245000000     1.309000000
O     3.211000000    -5.716000000    -5.939000000
H     2.835000000    -5.928000000    -6.794000000
H     4.078000000    -5.364000000    -6.139000000
O     8.798000000    -5.258000000    -0.821000000
H     7.851000000    -5.293000000    -0.951000000
H     9.051000000    -6.165000000    -0.650000000
O     6.630000000    -6.102000000    -2.555000000
H     6.764000000    -6.581000000    -3.373000000
H     5.713000000    -5.829000000    -2.584000000
O    -0.317000000    -8.589000000    -2.311000000
H     0.576000000    -8.762000000    -2.609000000
H    -0.207000000    -8.151000000    -1.467000000
O     3.719000000    -4.932000000    -3.097000000
H     3.306000000    -5.106000000    -3.942000000
H     2.987000000    -4.820000000    -2.490000000
O     0.738000000    -7.374000000    -4.764000000
H     0.271000000    -6.598000000    -4.453000000
H     1.643000000    -7.237000000    -4.483000000
O     3.830000000    -6.815000000    -0.436000000
H     3.192000000    -6.243000000    -0.862000000
H     4.395000000    -6.220000000     0.056000000
