201
-1244.45091
C    -1.091000000     0.604000000     5.288000000
H    -2.174000000     0.523000000     5.244000000
C    -0.353000000     1.605000000     4.695000000
C     1.090000000     1.541000000     4.757000000
H     1.681000000     2.208000000     4.134000000
C    -0.935000000     2.425000000     3.531000000
O    -2.368000000     2.587000000     3.511000000
H    -0.776000000     1.808000000     2.634000000
O    -0.269000000     3.656000000     3.325000000
C    -0.023000000     4.053000000     2.003000000
C     1.319000000     3.963000000     1.567000000
H     2.149000000     3.748000000     2.236000000
C     1.655000000     4.375000000     0.236000000
O     2.901000000     4.046000000    -0.295000000
C     0.639000000     4.705000000    -0.661000000
C     0.974000000     5.114000000    -2.137000000
H     0.351000000     5.933000000    -2.503000000
C     0.890000000     3.867000000    -2.978000000
C    -0.398000000     3.551000000    -3.530000000
H    -1.221000000     4.235000000    -3.340000000
H     2.029000000     5.348000000    -2.288000000
C    -0.631000000     4.950000000    -0.168000000
H    -1.402000000     5.390000000    -0.795000000
C    -0.970000000     4.665000000     1.211000000
C    -2.446000000     4.754000000     1.605000000
H    -2.805000000     5.591000000     1.001000000
H    -2.573000000     5.142000000     2.617000000
C    -3.174000000     3.418000000     1.407000000
C    -3.973000000     3.107000000     0.289000000
H    -4.114000000     3.889000000    -0.453000000
C    -3.099000000     2.418000000     2.387000000
C    -3.700000000     1.220000000     2.258000000
H    -3.543000000     0.431000000     2.988000000
C    -4.470000000     0.898000000     1.123000000
O    -5.025000000    -0.362000000     0.880000000
C    -4.263000000    -1.260000000     0.066000000
C    -4.035000000    -2.664000000     0.674000000
C    -3.313000000    -3.630000000     0.006000000
H    -2.879000000    -3.535000000    -0.987000000
C    -4.429000000    -2.840000000     2.031000000
H    -5.091000000    -2.166000000     2.567000000
O    -4.932000000    -1.293000000    -1.216000000
H    -3.245000000    -0.906000000    -0.157000000
C    -4.573000000     1.854000000     0.065000000
C    -5.404000000     1.610000000    -1.176000000
H    -5.845000000     2.481000000    -1.666000000
H    -6.214000000     0.880000000    -1.118000000
C    -4.456000000     0.927000000    -2.198000000
C    -3.733000000     1.666000000    -3.099000000
H    -3.865000000     2.738000000    -3.217000000
C    -4.325000000    -0.486000000    -2.185000000
C    -3.342000000    -1.115000000    -2.973000000
H    -3.245000000    -2.197000000    -2.935000000
C    -2.519000000    -0.325000000    -3.773000000
O    -1.609000000    -1.045000000    -4.531000000
C    -0.206000000    -0.849000000    -4.264000000
C     0.633000000    -2.119000000    -4.325000000
C     0.017000000    -3.340000000    -4.064000000
H    -1.065000000    -3.360000000    -3.968000000
C     2.041000000    -2.110000000    -4.559000000
H     2.545000000    -1.188000000    -4.838000000
O     0.290000000     0.200000000    -5.094000000
H    -0.181000000    -0.477000000    -3.229000000
C    -2.782000000     1.015000000    -3.893000000
C    -1.906000000     1.986000000    -4.773000000
H    -2.479000000     2.905000000    -4.912000000
H    -1.790000000     1.482000000    -5.735000000
C    -0.561000000     2.405000000    -4.260000000
C     0.468000000     1.447000000    -4.440000000
C     1.729000000     1.801000000    -3.914000000
H     2.569000000     1.113000000    -3.974000000
C     1.954000000     2.962000000    -3.139000000
O     3.094000000     2.961000000    -2.367000000
C     2.986000000     2.693000000    -0.949000000
H     2.104000000     2.047000000    -0.831000000
C     4.340000000     2.078000000    -0.516000000
C     4.872000000     2.376000000     0.728000000
H     4.330000000     3.028000000     1.408000000
C     4.941000000     1.069000000    -1.295000000
H     4.520000000     0.761000000    -2.249000000
C     6.038000000     0.375000000    -0.754000000
O     6.656000000    -0.643000000    -1.487000000
C     6.554000000     0.759000000     0.492000000
H     7.524000000     0.373000000     0.795000000
C     5.995000000     1.694000000     1.243000000
O     6.488000000     1.820000000     2.494000000
C     5.610000000     1.987000000     3.580000000
C     4.625000000     1.133000000     4.008000000
H     4.411000000     0.275000000     3.376000000
C     6.036000000     3.004000000     4.443000000
H     6.886000000     3.620000000     4.159000000
C     5.339000000     3.298000000     5.647000000
H     5.600000000     4.092000000     6.342000000
C     4.291000000     2.449000000     6.033000000
H     3.953000000     2.500000000     7.064000000
C     3.974000000     1.292000000     5.253000000
O     3.063000000     0.366000000     5.778000000
C     1.679000000     0.542000000     5.538000000
C     0.854000000    -0.427000000     6.217000000
H     1.346000000    -1.269000000     6.696000000
C    -0.503000000    -0.422000000     6.041000000
O    -1.265000000    -1.428000000     6.441000000
C    -2.540000000    -1.719000000     6.112000000
C    -2.860000000    -2.720000000     5.219000000
H    -2.082000000    -3.147000000     4.591000000
C    -3.605000000    -1.052000000     6.702000000
H    -3.387000000    -0.277000000     7.432000000
C    -4.911000000    -1.339000000     6.395000000
H    -5.716000000    -0.852000000     6.940000000
C    -5.183000000    -2.411000000     5.515000000
H    -6.205000000    -2.746000000     5.355000000
C    -4.188000000    -3.095000000     4.879000000
O    -4.452000000    -4.087000000     3.983000000
C    -4.166000000    -4.054000000     2.686000000
C    -3.372000000    -4.972000000     2.061000000
H    -2.919000000    -5.792000000     2.613000000
C    -2.932000000    -4.803000000     0.717000000
O    -2.131000000    -5.744000000     0.150000000
C    -2.152000000    -5.999000000    -1.211000000
C    -1.060000000    -5.635000000    -1.950000000
H    -0.287000000    -5.111000000    -1.393000000
C    -3.233000000    -6.629000000    -1.882000000
H    -4.144000000    -6.912000000    -1.361000000
C    -3.305000000    -6.833000000    -3.231000000
H    -4.201000000    -7.265000000    -3.669000000
C    -2.194000000    -6.452000000    -3.975000000
H    -2.218000000    -6.662000000    -5.041000000
C    -1.039000000    -5.888000000    -3.337000000
O     0.128000000    -5.731000000    -4.011000000
C     0.783000000    -4.542000000    -4.241000000
C     2.175000000    -4.479000000    -4.499000000
H     2.749000000    -5.399000000    -4.572000000
C     2.796000000    -3.267000000    -4.607000000
O     4.194000000    -3.207000000    -4.833000000
C     5.001000000    -2.157000000    -4.474000000
C     5.687000000    -1.548000000    -5.525000000
H     5.389000000    -1.747000000    -6.551000000
C     6.643000000    -0.615000000    -5.184000000
H     7.164000000    -0.093000000    -5.983000000
C     6.899000000    -0.303000000    -3.879000000
H     7.633000000     0.434000000    -3.564000000
C     6.323000000    -0.946000000    -2.775000000
C     5.401000000    -1.945000000    -3.133000000
H     5.129000000    -2.673000000    -2.373000000
O     7.221000000    -5.275000000     3.298000000
H     6.802000000    -4.661000000     3.902000000
H     8.090000000    -4.906000000     3.146000000
O     6.390000000    -3.484000000     0.205000000
H     6.706000000    -3.255000000    -0.668000000
H     7.145000000    -3.344000000     0.778000000
O     3.604000000    -5.637000000    -0.654000000
H     4.009000000    -5.864000000     0.183000000
H     2.964000000    -4.960000000    -0.436000000
O     3.293000000    -2.481000000     5.000000000
H     3.105000000    -2.615000000     4.071000000
H     3.370000000    -1.532000000     5.095000000
O     3.750000000    -7.708000000     1.556000000
H     3.697000000    -8.635000000     1.327000000
H     4.689000000    -7.528000000     1.608000000
O     4.669000000    -4.586000000     5.894000000
H     4.041000000    -3.912000000     5.637000000
H     4.461000000    -5.334000000     5.334000000
O     6.907000000    -3.085000000     5.222000000
H     6.466000000    -2.723000000     4.453000000
H     6.235000000    -3.609000000     5.658000000
O     0.071000000    -9.571000000     1.626000000
H     0.009000000    -8.623000000     1.507000000
H    -0.388000000    -9.938000000     0.870000000
O     2.026000000    -7.130000000    -2.443000000
H     2.614000000    -6.841000000    -1.745000000
H     1.706000000    -6.319000000    -2.838000000
O     2.738000000    -7.245000000     4.988000000
H     3.098000000    -6.566000000     4.417000000
H     2.053000000    -6.800000000     5.487000000
O     0.802000000    -9.254000000     4.401000000
H     1.472000000    -8.580000000     4.516000000
H     0.344000000    -9.003000000     3.599000000
O     5.817000000    -6.390000000    -2.794000000
H     6.745000000    -6.354000000    -2.560000000
H     5.418000000    -5.673000000    -2.300000000
O     5.471000000    -2.858000000     2.656000000
H     4.543000000    -2.706000000     2.477000000
H     5.809000000    -3.252000000     1.852000000
O     1.123000000    -6.740000000     2.059000000
H     1.239000000    -5.828000000     1.793000000
H     1.960000000    -7.157000000     1.855000000
O     6.653000000    -7.538000000     1.850000000
H     7.051000000    -7.556000000     0.980000000
H     6.910000000    -6.690000000     2.214000000
O    -0.787000000    -6.749000000     3.796000000
H    -1.468000000    -7.262000000     3.359000000
H    -0.072000000    -6.710000000     3.160000000
O     3.824000000    -5.417000000     3.315000000
H     3.274000000    -4.698000000     3.005000000
H     4.036000000    -5.914000000     2.524000000
O     4.531000000    -8.685000000    -2.407000000
H     3.691000000    -8.382000000    -2.752000000
H     5.113000000    -7.931000000    -2.497000000
O    -2.709000000    -5.857000000     5.918000000
H    -1.891000000    -5.977000000     5.436000000
H    -3.257000000    -5.332000000     5.334000000
