201
-1226.04674
C    -0.951000000     0.412000000     4.986000000
H    -1.957000000     0.083000000     4.738000000
C    -0.230000000     1.497000000     4.381000000
C     1.095000000     1.759000000     4.795000000
H     1.669000000     2.579000000     4.370000000
C    -0.964000000     2.335000000     3.336000000
O    -2.377000000     2.587000000     3.638000000
H    -0.813000000     1.925000000     2.326000000
O    -0.444000000     3.663000000     3.206000000
C    -0.293000000     4.129000000     1.978000000
C     1.021000000     4.055000000     1.583000000
H     1.794000000     3.767000000     2.291000000
C     1.381000000     4.385000000     0.302000000
O     2.653000000     4.095000000    -0.156000000
C     0.337000000     4.821000000    -0.611000000
C     0.717000000     5.094000000    -2.069000000
H     0.118000000     5.784000000    -2.666000000
C     0.690000000     3.818000000    -2.800000000
C    -0.484000000     3.466000000    -3.385000000
H    -1.415000000     3.966000000    -3.131000000
H     1.735000000     5.482000000    -2.139000000
C    -0.964000000     5.014000000    -0.098000000
H    -1.777000000     5.190000000    -0.798000000
C    -1.304000000     4.573000000     1.134000000
C    -2.710000000     4.712000000     1.736000000
H    -3.257000000     5.352000000     1.040000000
H    -2.619000000     5.135000000     2.738000000
C    -3.417000000     3.370000000     1.682000000
C    -4.193000000     3.020000000     0.584000000
H    -4.521000000     3.802000000    -0.097000000
C    -3.203000000     2.371000000     2.615000000
C    -3.688000000     1.056000000     2.476000000
H    -3.282000000     0.250000000     3.082000000
C    -4.471000000     0.743000000     1.337000000
O    -4.868000000    -0.554000000     1.088000000
C    -4.144000000    -1.308000000     0.122000000
C    -3.799000000    -2.662000000     0.645000000
C    -2.933000000    -3.383000000    -0.108000000
H    -2.667000000    -3.022000000    -1.099000000
C    -4.029000000    -2.986000000     2.014000000
H    -4.570000000    -2.331000000     2.692000000
O    -4.876000000    -1.371000000    -1.070000000
H    -3.238000000    -0.739000000    -0.132000000
C    -4.643000000     1.736000000     0.344000000
C    -5.272000000     1.402000000    -1.012000000
H    -5.640000000     2.265000000    -1.570000000
H    -6.173000000     0.833000000    -0.771000000
C    -4.408000000     0.758000000    -1.973000000
C    -3.616000000     1.588000000    -2.795000000
H    -3.770000000     2.663000000    -2.734000000
C    -4.248000000    -0.650000000    -2.074000000
C    -3.342000000    -1.233000000    -3.038000000
H    -3.246000000    -2.316000000    -3.048000000
C    -2.583000000    -0.391000000    -3.796000000
O    -1.546000000    -0.919000000    -4.584000000
C    -0.133000000    -0.790000000    -4.292000000
C     0.599000000    -2.086000000    -4.616000000
C    -0.036000000    -3.302000000    -4.759000000
H    -1.114000000    -3.337000000    -4.893000000
C     1.928000000    -2.040000000    -4.199000000
H     2.353000000    -1.090000000    -3.885000000
O     0.443000000     0.305000000    -5.016000000
H    -0.031000000    -0.624000000    -3.210000000
C    -2.711000000     1.017000000    -3.667000000
C    -1.948000000     1.883000000    -4.597000000
H    -2.538000000     2.800000000    -4.658000000
H    -1.966000000     1.576000000    -5.644000000
C    -0.618000000     2.249000000    -4.102000000
C     0.549000000     1.519000000    -4.347000000
C     1.750000000     1.826000000    -3.668000000
H     2.594000000     1.154000000    -3.801000000
C     1.799000000     2.986000000    -2.938000000
O     2.952000000     3.280000000    -2.308000000
C     2.956000000     2.882000000    -0.945000000
H     2.053000000     2.276000000    -0.782000000
C     4.234000000     2.164000000    -0.576000000
C     4.522000000     2.026000000     0.771000000
H     3.969000000     2.563000000     1.538000000
C     4.973000000     1.514000000    -1.599000000
H     4.671000000     1.590000000    -2.641000000
C     6.066000000     0.756000000    -1.138000000
O     6.855000000     0.130000000    -2.072000000
C     6.410000000     0.604000000     0.169000000
H     7.204000000    -0.035000000     0.545000000
C     5.497000000     1.155000000     1.102000000
O     5.627000000     0.918000000     2.446000000
C     5.254000000     1.667000000     3.485000000
C     4.273000000     1.164000000     4.331000000
H     3.966000000     0.133000000     4.171000000
C     5.690000000     3.004000000     3.648000000
H     6.418000000     3.492000000     3.006000000
C     5.199000000     3.789000000     4.696000000
H     5.545000000     4.812000000     4.820000000
C     4.255000000     3.248000000     5.583000000
H     3.840000000     3.834000000     6.399000000
C     3.809000000     1.905000000     5.403000000
O     2.921000000     1.231000000     6.249000000
C     1.599000000     1.012000000     5.838000000
C     0.856000000     0.017000000     6.464000000
H     1.330000000    -0.438000000     7.330000000
C    -0.417000000    -0.313000000     6.058000000
O    -1.119000000    -1.213000000     6.807000000
C    -2.292000000    -1.842000000     6.462000000
C    -2.331000000    -2.725000000     5.316000000
H    -1.447000000    -2.822000000     4.691000000
C    -3.499000000    -1.634000000     7.200000000
H    -3.442000000    -1.006000000     8.086000000
C    -4.569000000    -2.437000000     6.862000000
H    -5.481000000    -2.317000000     7.441000000
C    -4.555000000    -3.265000000     5.776000000
H    -5.403000000    -3.836000000     5.408000000
C    -3.474000000    -3.421000000     4.957000000
O    -3.408000000    -4.441000000     3.961000000
C    -3.343000000    -4.071000000     2.619000000
C    -2.451000000    -4.795000000     1.823000000
H    -1.989000000    -5.671000000     2.272000000
C    -2.254000000    -4.439000000     0.511000000
O    -1.397000000    -5.297000000    -0.213000000
C    -1.674000000    -5.695000000    -1.508000000
C    -0.764000000    -5.394000000    -2.517000000
H     0.132000000    -4.819000000    -2.296000000
C    -2.783000000    -6.498000000    -1.785000000
H    -3.578000000    -6.739000000    -1.085000000
C    -3.025000000    -7.025000000    -3.051000000
H    -3.917000000    -7.549000000    -3.384000000
C    -2.085000000    -6.757000000    -4.061000000
H    -2.370000000    -7.044000000    -5.070000000
C    -0.915000000    -6.044000000    -3.803000000
O     0.095000000    -5.677000000    -4.728000000
C     0.675000000    -4.463000000    -4.815000000
C     2.019000000    -4.428000000    -4.461000000
H     2.477000000    -5.377000000    -4.192000000
C     2.670000000    -3.239000000    -4.192000000
O     3.984000000    -3.208000000    -3.797000000
C     4.822000000    -2.137000000    -3.984000000
C     5.208000000    -1.876000000    -5.284000000
H     4.998000000    -2.530000000    -6.127000000
C     6.042000000    -0.829000000    -5.518000000
H     6.300000000    -0.622000000    -6.553000000
C     6.581000000    -0.071000000    -4.464000000
H     7.225000000     0.795000000    -4.593000000
C     6.276000000    -0.462000000    -3.133000000
C     5.349000000    -1.473000000    -2.902000000
H     4.994000000    -1.702000000    -1.900000000
O     7.613000000    -6.090000000     2.838000000
H     7.455000000    -5.233000000     3.232000000
H     8.095000000    -5.899000000     2.033000000
O     4.399000000    -1.089000000     7.119000000
H     3.824000000    -0.455000000     6.692000000
H     4.810000000    -0.598000000     7.831000000
O     7.285000000    -0.917000000     4.101000000
H     8.043000000    -0.661000000     4.625000000
H     7.055000000    -0.128000000     3.610000000
O     4.248000000    -7.111000000    -1.633000000
H     3.937000000    -7.815000000    -2.203000000
H     4.981000000    -6.722000000    -2.110000000
O     1.487000000    -7.091000000    -0.075000000
H     2.290000000    -7.007000000    -0.589000000
H     1.362000000    -6.227000000     0.318000000
O     1.847000000    -6.501000000     5.619000000
H     2.090000000    -6.992000000     6.404000000
H     2.582000000    -5.906000000     5.472000000
O     5.219000000    -7.424000000     3.880000000
H     4.678000000    -7.157000000     3.137000000
H     6.033000000    -6.933000000     3.771000000
O     4.116000000    -4.683000000     5.229000000
H     5.018000000    -4.363000000     5.208000000
H     3.733000000    -4.374000000     4.408000000
O     6.817000000    -3.549000000     4.083000000
H     6.339000000    -3.715000000     3.271000000
H     7.038000000    -2.618000000     4.045000000
O     0.991000000    -9.549000000     0.907000000
H     1.293000000    -8.745000000     0.486000000
H     0.110000000    -9.686000000     0.558000000
O     1.449000000    -2.982000000     4.961000000
H     0.867000000    -2.414000000     4.457000000
H     2.047000000    -3.351000000     4.311000000
O    -0.717000000    -8.164000000     4.396000000
H    -0.151000000    -7.805000000     3.713000000
H    -1.483000000    -8.493000000     3.924000000
O     3.698000000   -10.196000000     0.668000000
H     2.769000000   -10.147000000     0.892000000
H     4.021000000    -9.303000000     0.786000000
O     5.557000000    -4.114000000     1.429000000
H     4.786000000    -3.681000000     1.794000000
H     5.249000000    -4.986000000     1.183000000
O     0.901000000    -6.551000000     2.863000000
H     0.734000000    -6.231000000     3.749000000
H     1.445000000    -5.873000000     2.462000000
O     5.874000000    -5.105000000    -3.001000000
H     6.663000000    -4.770000000    -3.428000000
H     5.283000000    -4.354000000    -2.967000000
O     4.281000000    -6.540000000     1.241000000
H     3.665000000    -5.842000000     1.463000000
H     4.315000000    -6.535000000     0.284000000
O     0.185000000    -3.793000000     7.242000000
H     0.445000000    -3.474000000     6.377000000
H     1.012000000    -3.997000000     7.680000000
O     8.407000000    -2.859000000     0.854000000
H     8.676000000    -3.772000000     0.953000000
H     7.494000000    -2.908000000     0.571000000
