201
-1256.66505
C    -4.074000000    -2.565000000     2.860000000
H    -4.512000000    -3.099000000     2.020000000
C    -3.849000000    -1.209000000     2.764000000
C    -3.249000000    -0.514000000     3.859000000
H    -2.916000000     0.514000000     3.739000000
C    -4.052000000    -0.457000000     1.421000000
O    -4.788000000    -1.270000000     0.384000000
H    -3.043000000    -0.273000000     1.023000000
O    -4.631000000     0.877000000     1.633000000
C    -4.112000000     1.980000000     0.912000000
C    -3.332000000     2.949000000     1.524000000
H    -3.246000000     2.867000000     2.605000000
C    -2.597000000     3.880000000     0.780000000
O    -1.602000000     4.631000000     1.382000000
C    -2.805000000     3.876000000    -0.598000000
C    -2.089000000     4.976000000    -1.358000000
H    -2.618000000     5.289000000    -2.261000000
C    -0.708000000     4.483000000    -1.774000000
C    -0.594000000     3.811000000    -3.039000000
H    -1.511000000     3.841000000    -3.623000000
H    -2.012000000     5.910000000    -0.798000000
C    -3.680000000     3.005000000    -1.224000000
H    -3.805000000     3.081000000    -2.301000000
C    -4.318000000     2.033000000    -0.512000000
C    -5.304000000     1.098000000    -1.250000000
H    -5.735000000     1.588000000    -2.126000000
H    -6.196000000     0.846000000    -0.673000000
C    -4.711000000    -0.205000000    -1.752000000
C    -4.154000000    -0.118000000    -3.033000000
H    -4.279000000     0.833000000    -3.544000000
C    -4.534000000    -1.299000000    -0.970000000
C    -3.847000000    -2.408000000    -1.437000000
H    -3.704000000    -3.323000000    -0.868000000
C    -3.274000000    -2.366000000    -2.677000000
O    -2.343000000    -3.391000000    -2.990000000
C    -1.011000000    -2.972000000    -2.707000000
C    -0.196000000    -3.927000000    -1.875000000
C     1.177000000    -4.159000000    -2.114000000
H     1.697000000    -3.501000000    -2.806000000
C    -0.775000000    -4.492000000    -0.731000000
H    -1.802000000    -4.242000000    -0.477000000
O    -0.392000000    -2.806000000    -3.988000000
H    -1.041000000    -2.026000000    -2.147000000
C    -3.362000000    -1.193000000    -3.508000000
C    -2.649000000    -1.086000000    -4.840000000
H    -3.299000000    -0.493000000    -5.486000000
H    -2.777000000    -2.059000000    -5.320000000
C    -1.274000000    -0.576000000    -4.748000000
C    -1.004000000     0.785000000    -5.022000000
H    -1.755000000     1.543000000    -5.234000000
C    -0.214000000    -1.461000000    -4.367000000
C     1.056000000    -1.001000000    -4.296000000
H     1.815000000    -1.766000000    -4.155000000
C     1.328000000     0.347000000    -4.520000000
O     2.642000000     0.789000000    -4.362000000
C     3.027000000     1.394000000    -3.095000000
C     4.377000000     0.878000000    -2.541000000
C     4.884000000    -0.386000000    -2.828000000
H     4.335000000    -1.035000000    -3.506000000
C     5.053000000     1.664000000    -1.512000000
H     4.598000000     2.586000000    -1.158000000
O     2.962000000     2.798000000    -3.141000000
H     2.256000000     1.163000000    -2.346000000
C     0.294000000     1.228000000    -4.803000000
C     0.645000000     2.686000000    -4.867000000
H    -0.136000000     3.155000000    -5.469000000
H     1.506000000     2.813000000    -5.526000000
C     0.560000000     3.308000000    -3.529000000
C     1.758000000     3.370000000    -2.712000000
C     1.665000000     4.030000000    -1.500000000
H     2.560000000     4.025000000    -0.883000000
C     0.469000000     4.620000000    -1.006000000
O     0.411000000     5.045000000     0.258000000
C    -0.260000000     4.120000000     1.246000000
H    -0.286000000     3.175000000     0.685000000
C     0.547000000     3.887000000     2.535000000
C    -0.138000000     3.873000000     3.773000000
H    -1.189000000     4.132000000     3.665000000
C     1.881000000     3.634000000     2.454000000
H     2.232000000     3.381000000     1.457000000
C     2.608000000     3.282000000     3.616000000
O     3.894000000     2.831000000     3.661000000
C     1.918000000     3.258000000     4.856000000
H     2.508000000     3.096000000     5.754000000
C     0.563000000     3.533000000     4.968000000
O    -0.068000000     3.521000000     6.216000000
C    -1.208000000     2.777000000     6.475000000
C    -1.208000000     1.417000000     6.145000000
H    -0.322000000     0.941000000     5.733000000
C    -2.305000000     3.428000000     6.986000000
H    -2.113000000     4.467000000     7.242000000
C    -3.478000000     2.696000000     7.240000000
H    -4.267000000     3.178000000     7.811000000
C    -3.527000000     1.363000000     6.888000000
H    -4.331000000     0.696000000     7.186000000
C    -2.386000000     0.715000000     6.339000000
O    -2.292000000    -0.661000000     6.045000000
C    -3.078000000    -1.221000000     5.058000000
C    -3.255000000    -2.587000000     5.075000000
H    -2.776000000    -3.021000000     5.949000000
C    -3.819000000    -3.235000000     4.038000000
O    -4.036000000    -4.576000000     4.101000000
C    -3.488000000    -5.393000000     3.136000000
C    -2.178000000    -5.264000000     2.602000000
H    -1.440000000    -4.613000000     3.063000000
C    -4.400000000    -6.340000000     2.573000000
H    -5.385000000    -6.473000000     3.014000000
C    -4.011000000    -7.086000000     1.481000000
H    -4.737000000    -7.805000000     1.110000000
C    -2.739000000    -6.916000000     0.895000000
H    -2.509000000    -7.573000000     0.059000000
C    -1.806000000    -6.090000000     1.515000000
O    -0.491000000    -5.919000000     1.180000000
C    -0.028000000    -5.378000000     0.032000000
C     1.229000000    -5.893000000    -0.391000000
H     1.761000000    -6.698000000     0.108000000
C     1.830000000    -5.242000000    -1.542000000
O     3.208000000    -5.522000000    -1.753000000
C     3.928000000    -4.749000000    -2.687000000
C     4.870000000    -3.855000000    -2.156000000
H     5.047000000    -3.826000000    -1.083000000
C     3.866000000    -5.056000000    -4.015000000
H     3.122000000    -5.779000000    -4.340000000
C     4.628000000    -4.318000000    -4.910000000
H     4.475000000    -4.540000000    -5.963000000
C     5.605000000    -3.423000000    -4.392000000
H     6.329000000    -2.887000000    -5.001000000
C     5.611000000    -3.077000000    -3.036000000
O     6.539000000    -2.080000000    -2.571000000
C     6.028000000    -0.864000000    -2.169000000
C     6.721000000    -0.103000000    -1.301000000
H     7.624000000    -0.486000000    -0.833000000
C     6.271000000     1.172000000    -0.928000000
O     7.009000000     1.966000000    -0.049000000
C     6.515000000     2.827000000     0.970000000
C     6.971000000     4.126000000     1.177000000
H     7.694000000     4.472000000     0.442000000
C     6.501000000     4.986000000     2.184000000
H     6.887000000     6.001000000     2.235000000
C     5.447000000     4.516000000     2.968000000
H     4.966000000     5.226000000     3.636000000
C     4.959000000     3.230000000     2.800000000
C     5.483000000     2.380000000     1.822000000
H     5.136000000     1.361000000     1.671000000
O     5.787000000    -5.363000000     5.280000000
H     6.349000000    -4.589000000     5.233000000
H     5.234000000    -5.305000000     4.501000000
O     4.333000000    -2.511000000     5.857000000
H     3.582000000    -2.322000000     6.418000000
H     4.040000000    -2.273000000     4.977000000
O     0.301000000    -2.349000000     5.606000000
H    -0.416000000    -1.745000000     5.798000000
H     0.928000000    -1.825000000     5.107000000
O     0.321000000     0.904000000     8.955000000
H     0.818000000     0.639000000     8.181000000
H    -0.504000000     0.424000000     8.886000000
O     7.056000000    -2.888000000     5.260000000
H     6.228000000    -2.505000000     5.552000000
H     7.723000000    -2.269000000     5.555000000
O     2.025000000    -4.686000000     8.182000000
H     2.299000000    -3.770000000     8.231000000
H     2.618000000    -5.146000000     8.776000000
O     2.017000000     0.001000000     6.861000000
H     2.261000000    -0.324000000     5.994000000
H     2.665000000     0.679000000     7.054000000
O     4.994000000    -7.084000000     1.881000000
H     4.291000000    -6.458000000     2.055000000
H     5.519000000    -6.670000000     1.196000000
O     6.289000000    -2.193000000     2.519000000
H     6.746000000    -2.348000000     3.345000000
H     5.394000000    -1.973000000     2.778000000
O    -0.783000000    -2.606000000     7.956000000
H    -0.784000000    -3.234000000     8.678000000
H    -0.073000000    -2.898000000     7.385000000
O     5.612000000    -4.220000000     8.161000000
H     5.407000000    -4.163000000     7.228000000
H     5.138000000    -3.488000000     8.556000000
O     1.883000000    -7.576000000     4.479000000
H     1.338000000    -7.879000000     3.753000000
H     1.598000000    -6.676000000     4.635000000
O     3.553000000    -4.871000000     3.556000000
H     3.447000000    -3.939000000     3.363000000
H     2.973000000    -5.028000000     4.301000000
O     7.410000000     0.646000000     5.046000000
H     6.472000000     0.576000000     4.865000000
H     7.473000000     1.309000000     5.734000000
O     1.237000000    -4.895000000     5.484000000
H     1.521000000    -5.046000000     6.386000000
H     0.700000000    -4.104000000     5.532000000
O     2.485000000    -1.993000000     8.567000000
H     2.315000000    -1.150000000     8.147000000
H     2.930000000    -1.768000000     9.384000000
O     4.416000000     0.595000000     5.035000000
H     4.208000000     1.417000000     4.592000000
H     3.799000000    -0.038000000     4.668000000
O     9.195000000    -0.956000000     3.465000000
H     9.413000000    -0.605000000     2.601000000
H     8.632000000    -0.290000000     3.860000000
O     7.859000000    -3.308000000     0.441000000
H     8.529000000    -3.519000000     1.091000000
H     7.104000000    -3.026000000     0.958000000
