201
-1235.21265
C    -1.558000000    -0.101000000     5.163000000
H    -2.435000000    -0.672000000     4.868000000
C    -1.276000000     1.163000000     4.759000000
C    -0.185000000     1.886000000     5.287000000
H     0.064000000     2.870000000     4.898000000
C    -2.031000000     1.729000000     3.493000000
O    -3.405000000     1.245000000     3.438000000
H    -1.510000000     1.327000000     2.612000000
O    -2.058000000     3.098000000     3.377000000
C    -1.621000000     3.752000000     2.287000000
C    -0.245000000     4.027000000     2.058000000
H     0.536000000     3.824000000     2.786000000
C     0.189000000     4.519000000     0.850000000
O     1.553000000     4.456000000     0.543000000
C    -0.788000000     4.793000000    -0.156000000
C    -0.461000000     5.180000000    -1.572000000
H    -1.131000000     5.881000000    -2.073000000
C    -0.251000000     3.938000000    -2.473000000
C    -1.207000000     3.531000000    -3.344000000
H    -2.222000000     3.898000000    -3.211000000
H     0.465000000     5.758000000    -1.520000000
C    -2.147000000     4.593000000     0.096000000
H    -2.896000000     4.811000000    -0.660000000
C    -2.541000000     4.016000000     1.299000000
C    -3.981000000     3.711000000     1.513000000
H    -4.547000000     4.326000000     0.811000000
H    -4.320000000     3.815000000     2.546000000
C    -4.256000000     2.212000000     1.273000000
C    -4.733000000     1.779000000     0.046000000
H    -4.940000000     2.527000000    -0.715000000
C    -3.906000000     1.151000000     2.183000000
C    -4.004000000    -0.165000000     1.730000000
H    -3.723000000    -0.905000000     2.475000000
C    -4.557000000    -0.526000000     0.544000000
O    -4.656000000    -1.860000000     0.228000000
C    -3.578000000    -2.426000000    -0.428000000
C    -2.879000000    -3.636000000     0.162000000
C    -1.901000000    -4.323000000    -0.563000000
H    -1.722000000    -4.008000000    -1.588000000
C    -3.075000000    -3.969000000     1.538000000
H    -3.796000000    -3.412000000     2.132000000
O    -3.945000000    -2.467000000    -1.754000000
H    -2.706000000    -1.755000000    -0.430000000
C    -4.933000000     0.478000000    -0.343000000
C    -5.453000000     0.086000000    -1.729000000
H    -6.206000000     0.760000000    -2.143000000
H    -5.990000000    -0.848000000    -1.551000000
C    -4.184000000    -0.148000000    -2.537000000
C    -3.609000000     0.923000000    -3.290000000
H    -4.036000000     1.923000000    -3.302000000
C    -3.617000000    -1.384000000    -2.562000000
C    -2.526000000    -1.569000000    -3.389000000
H    -2.113000000    -2.568000000    -3.496000000
C    -2.054000000    -0.645000000    -4.248000000
O    -0.835000000    -1.019000000    -4.897000000
C     0.434000000    -0.478000000    -4.419000000
C     1.584000000    -1.371000000    -4.792000000
C     1.370000000    -2.771000000    -4.753000000
H     0.378000000    -3.201000000    -4.645000000
C     2.918000000    -0.895000000    -4.928000000
H     3.104000000     0.164000000    -5.089000000
O     0.522000000     0.808000000    -5.053000000
H     0.319000000    -0.379000000    -3.329000000
C    -2.596000000     0.653000000    -4.212000000
C    -2.058000000     1.813000000    -5.011000000
H    -2.874000000     2.486000000    -5.283000000
H    -1.665000000     1.524000000    -5.988000000
C    -0.917000000     2.523000000    -4.235000000
C     0.343000000     1.924000000    -4.255000000
C     1.322000000     2.322000000    -3.377000000
H     2.247000000     1.752000000    -3.387000000
C     1.028000000     3.322000000    -2.450000000
O     2.061000000     3.679000000    -1.633000000
C     1.984000000     3.312000000    -0.240000000
H     1.235000000     2.507000000    -0.230000000
C     3.295000000     2.719000000     0.205000000
C     3.538000000     2.640000000     1.590000000
H     2.720000000     2.803000000     2.286000000
C     4.330000000     2.259000000    -0.680000000
H     4.180000000     2.401000000    -1.748000000
C     5.512000000     1.650000000    -0.209000000
O     6.396000000     1.084000000    -1.111000000
C     5.670000000     1.508000000     1.145000000
H     6.546000000     1.022000000     1.566000000
C     4.681000000     1.979000000     2.012000000
O     4.919000000     1.667000000     3.340000000
C     4.274000000     2.359000000     4.398000000
C     3.131000000     1.880000000     5.019000000
H     2.560000000     1.065000000     4.579000000
C     4.922000000     3.435000000     5.019000000
H     5.840000000     3.905000000     4.675000000
C     4.612000000     3.827000000     6.316000000
H     5.208000000     4.531000000     6.892000000
C     3.429000000     3.384000000     6.875000000
H     2.918000000     3.969000000     7.635000000
C     2.664000000     2.396000000     6.179000000
O     1.590000000     1.882000000     6.839000000
C     0.547000000     1.265000000     6.294000000
C     0.197000000     0.039000000     6.761000000
H     0.673000000    -0.349000000     7.658000000
C    -0.778000000    -0.688000000     6.144000000
O    -1.085000000    -1.918000000     6.648000000
C    -1.948000000    -2.822000000     6.147000000
C    -1.604000000    -3.643000000     5.095000000
H    -0.578000000    -3.701000000     4.741000000
C    -3.261000000    -2.707000000     6.551000000
H    -3.561000000    -2.070000000     7.380000000
C    -4.269000000    -3.474000000     5.922000000
H    -5.279000000    -3.341000000     6.301000000
C    -3.939000000    -4.331000000     4.835000000
H    -4.730000000    -4.964000000     4.441000000
C    -2.605000000    -4.445000000     4.500000000
O    -2.391000000    -5.309000000     3.494000000
C    -2.364000000    -5.019000000     2.155000000
C    -1.478000000    -5.759000000     1.380000000
H    -0.913000000    -6.615000000     1.738000000
C    -1.239000000    -5.385000000     0.032000000
O    -0.169000000    -5.966000000    -0.694000000
C    -0.061000000    -5.987000000    -2.045000000
C     1.113000000    -5.574000000    -2.673000000
H     1.908000000    -5.168000000    -2.053000000
C    -1.078000000    -6.574000000    -2.737000000
H    -1.965000000    -6.954000000    -2.236000000
C    -0.940000000    -6.703000000    -4.151000000
H    -1.675000000    -7.315000000    -4.668000000
C     0.231000000    -6.271000000    -4.818000000
H     0.489000000    -6.492000000    -5.851000000
C     1.187000000    -5.577000000    -4.082000000
O     2.322000000    -5.025000000    -4.710000000
C     2.493000000    -3.654000000    -4.785000000
C     3.806000000    -3.161000000    -4.964000000
H     4.667000000    -3.799000000    -5.147000000
C     4.014000000    -1.780000000    -5.006000000
O     5.324000000    -1.234000000    -5.075000000
C     5.644000000    -0.109000000    -4.387000000
C     5.650000000     1.072000000    -5.153000000
H     5.425000000     0.985000000    -6.213000000
C     5.869000000     2.278000000    -4.517000000
H     5.904000000     3.193000000    -5.103000000
C     6.178000000     2.306000000    -3.168000000
H     6.284000000     3.181000000    -2.532000000
C     6.195000000     1.096000000    -2.453000000
C     5.982000000    -0.098000000    -3.029000000
H     6.084000000    -1.025000000    -2.471000000
O     4.085000000    -3.865000000     3.727000000
H     3.388000000    -4.390000000     3.335000000
H     4.383000000    -3.295000000     3.019000000
O     6.781000000    -4.419000000    -0.670000000
H     7.473000000    -4.068000000    -1.231000000
H     6.240000000    -3.660000000    -0.452000000
O     7.736000000    -7.057000000     1.259000000
H     7.173000000    -6.305000000     1.442000000
H     8.547000000    -6.673000000     0.926000000
O     2.732000000    -7.843000000     0.951000000
H     1.782000000    -7.855000000     1.068000000
H     2.888000000    -7.128000000     0.334000000
O     4.210000000    -7.018000000     3.135000000
H     3.779000000    -6.821000000     2.303000000
H     4.581000000    -6.181000000     3.416000000
O     7.270000000    -0.979000000     3.668000000
H     6.399000000    -0.981000000     3.273000000
H     7.123000000    -1.243000000     4.576000000
O     5.360000000    -7.698000000    -2.088000000
H     5.099000000    -7.000000000    -1.487000000
H     5.963000000    -8.240000000    -1.579000000
O     6.213000000     0.312000000     6.731000000
H     5.644000000     0.259000000     5.963000000
H     5.811000000    -0.278000000     7.369000000
O     2.190000000    -4.306000000     1.696000000
H     1.764000000    -3.567000000     1.261000000
H     1.496000000    -4.712000000     2.215000000
O     8.054000000    -1.402000000    -0.161000000
H     8.535000000    -1.373000000     0.665000000
H     7.149000000    -1.585000000     0.094000000
O    10.471000000    -3.752000000     2.034000000
H    10.803000000    -4.315000000     1.334000000
H    10.189000000    -2.954000000     1.586000000
O     9.507000000    -1.147000000     1.939000000
H     8.683000000    -1.127000000     2.425000000
H    10.181000000    -1.014000000     2.605000000
O     9.746000000     0.005000000    -1.560000000
H     9.742000000     0.942000000    -1.360000000
H     8.956000000    -0.333000000    -1.139000000
O     3.782000000    -5.520000000    -0.169000000
H     4.602000000    -5.037000000    -0.265000000
H     3.249000000    -4.975000000     0.410000000
O     4.234000000    -1.146000000     4.950000000
H     4.200000000    -2.096000000     4.840000000
H     4.493000000    -0.814000000     4.090000000
O     6.538000000    -4.511000000     1.991000000
H     5.965000000    -3.757000000     2.127000000
H     6.865000000    -4.406000000     1.098000000
O     8.441000000    -3.994000000     4.157000000
H     9.016000000    -4.097000000     3.399000000
H     7.559000000    -3.959000000     3.785000000
O     9.853000000    -2.876000000    -2.468000000
H     9.500000000    -2.479000000    -1.671000000
H     9.841000000    -2.169000000    -3.113000000
O     7.989000000     2.378000000     4.323000000
H     7.841000000     2.758000000     3.457000000
H     7.257000000     1.774000000     4.448000000
