201
-1263.63836
C    -1.056000000     0.221000000     5.360000000
H    -1.970000000    -0.287000000     5.062000000
C    -0.619000000     1.364000000     4.600000000
C     0.606000000     1.866000000     5.013000000
H     0.979000000     2.769000000     4.537000000
C    -1.441000000     2.029000000     3.475000000
O    -2.804000000     1.567000000     3.546000000
H    -1.178000000     1.600000000     2.497000000
O    -1.392000000     3.495000000     3.416000000
C    -1.313000000     4.025000000     2.147000000
C    -0.022000000     4.277000000     1.682000000
H     0.801000000     4.127000000     2.376000000
C     0.219000000     4.585000000     0.363000000
O     1.469000000     4.670000000    -0.165000000
C    -0.845000000     4.813000000    -0.525000000
C    -0.614000000     5.191000000    -1.999000000
H    -1.487000000     5.680000000    -2.436000000
C    -0.398000000     3.970000000    -2.825000000
C    -1.473000000     3.323000000    -3.392000000
H    -2.490000000     3.701000000    -3.322000000
H     0.269000000     5.834000000    -1.993000000
C    -2.175000000     4.494000000    -0.075000000
H    -3.044000000     4.496000000    -0.728000000
C    -2.388000000     4.071000000     1.258000000
C    -3.724000000     3.626000000     1.707000000
H    -4.471000000     4.209000000     1.165000000
H    -3.866000000     3.872000000     2.762000000
C    -3.958000000     2.158000000     1.487000000
C    -4.633000000     1.691000000     0.374000000
H    -5.001000000     2.331000000    -0.424000000
C    -3.507000000     1.240000000     2.448000000
C    -3.842000000    -0.132000000     2.370000000
H    -3.492000000    -0.854000000     3.103000000
C    -4.413000000    -0.620000000     1.172000000
O    -4.423000000    -1.981000000     1.043000000
C    -3.490000000    -2.504000000     0.074000000
C    -2.923000000    -3.826000000     0.663000000
C    -2.550000000    -4.830000000    -0.236000000
H    -2.637000000    -4.783000000    -1.319000000
C    -2.780000000    -3.986000000     2.025000000
H    -3.026000000    -3.135000000     2.655000000
O    -4.120000000    -2.601000000    -1.283000000
H    -2.636000000    -1.812000000     0.024000000
C    -4.914000000     0.314000000     0.194000000
C    -5.597000000    -0.099000000    -1.144000000
H    -6.138000000     0.744000000    -1.579000000
H    -6.161000000    -0.991000000    -0.863000000
C    -4.539000000    -0.421000000    -2.175000000
C    -4.091000000     0.569000000    -3.052000000
H    -4.722000000     1.450000000    -2.970000000
C    -3.919000000    -1.667000000    -2.242000000
C    -2.872000000    -1.919000000    -3.124000000
H    -2.407000000    -2.901000000    -3.140000000
C    -2.443000000    -0.899000000    -3.932000000
O    -1.259000000    -1.186000000    -4.614000000
C    -0.027000000    -0.610000000    -4.166000000
C     1.174000000    -1.519000000    -4.023000000
C     1.004000000    -2.871000000    -3.656000000
H     0.009000000    -3.191000000    -3.358000000
C     2.477000000    -1.092000000    -4.443000000
H     2.589000000    -0.044000000    -4.706000000
O     0.221000000     0.534000000    -4.999000000
H    -0.221000000    -0.170000000    -3.176000000
C    -3.007000000     0.389000000    -3.854000000
C    -2.478000000     1.419000000    -4.857000000
H    -3.253000000     2.188000000    -4.883000000
H    -2.252000000     1.053000000    -5.860000000
C    -1.312000000     2.191000000    -4.235000000
C     0.008000000     1.754000000    -4.417000000
C     1.147000000     2.427000000    -3.889000000
H     2.129000000     1.964000000    -3.955000000
C     0.879000000     3.474000000    -3.021000000
O     1.942000000     3.932000000    -2.287000000
C     1.895000000     3.549000000    -0.919000000
H     1.141000000     2.765000000    -0.755000000
C     3.238000000     2.995000000    -0.547000000
C     3.451000000     2.619000000     0.839000000
H     2.698000000     2.690000000     1.619000000
C     4.260000000     2.796000000    -1.469000000
H     4.125000000     2.913000000    -2.541000000
C     5.497000000     2.344000000    -1.079000000
O     6.450000000     2.041000000    -2.035000000
C     5.772000000     2.139000000     0.317000000
H     6.778000000     1.862000000     0.620000000
C     4.743000000     2.249000000     1.253000000
O     5.080000000     1.833000000     2.528000000
C     4.567000000     2.535000000     3.628000000
C     3.849000000     1.830000000     4.582000000
H     3.580000000     0.814000000     4.305000000
C     5.024000000     3.816000000     3.894000000
H     5.703000000     4.316000000     3.207000000
C     4.688000000     4.420000000     5.158000000
H     5.023000000     5.414000000     5.446000000
C     3.864000000     3.751000000     6.034000000
H     3.483000000     4.245000000     6.924000000
C     3.457000000     2.439000000     5.753000000
O     2.481000000     1.895000000     6.609000000
C     1.358000000     1.266000000     6.081000000
C     0.910000000     0.131000000     6.771000000
H     1.510000000    -0.294000000     7.572000000
C    -0.371000000    -0.326000000     6.439000000
O    -0.806000000    -1.491000000     7.112000000
C    -1.747000000    -2.344000000     6.519000000
C    -1.316000000    -3.412000000     5.664000000
H    -0.262000000    -3.672000000     5.601000000
C    -3.097000000    -2.149000000     6.735000000
H    -3.349000000    -1.399000000     7.481000000
C    -4.034000000    -2.959000000     6.045000000
H    -5.081000000    -2.882000000     6.326000000
C    -3.622000000    -4.004000000     5.174000000
H    -4.306000000    -4.697000000     4.691000000
C    -2.235000000    -4.176000000     4.916000000
O    -1.878000000    -5.142000000     3.992000000
C    -2.161000000    -5.094000000     2.616000000
C    -1.656000000    -6.063000000     1.741000000
H    -1.316000000    -6.991000000     2.194000000
C    -1.816000000    -5.894000000     0.351000000
O    -1.398000000    -6.956000000    -0.385000000
C    -0.908000000    -6.676000000    -1.629000000
C     0.366000000    -6.084000000    -1.745000000
H     0.885000000    -5.771000000    -0.843000000
C    -1.604000000    -7.101000000    -2.755000000
H    -2.531000000    -7.656000000    -2.643000000
C    -1.053000000    -7.004000000    -4.015000000
H    -1.571000000    -7.484000000    -4.842000000
C     0.191000000    -6.356000000    -4.165000000
H     0.571000000    -6.156000000    -5.164000000
C     0.921000000    -5.859000000    -3.022000000
O     2.057000000    -5.117000000    -3.227000000
C     2.140000000    -3.749000000    -3.639000000
C     3.402000000    -3.256000000    -4.010000000
H     4.192000000    -4.000000000    -4.058000000
C     3.571000000    -1.987000000    -4.441000000
O     4.861000000    -1.516000000    -4.813000000
C     5.297000000    -0.191000000    -4.652000000
C     5.751000000     0.439000000    -5.764000000
H     5.629000000    -0.099000000    -6.700000000
C     6.317000000     1.724000000    -5.705000000
H     6.570000000     2.292000000    -6.596000000
C     6.552000000     2.261000000    -4.399000000
H     7.084000000     3.205000000    -4.315000000
C     6.217000000     1.564000000    -3.269000000
C     5.554000000     0.353000000    -3.372000000
H     5.252000000    -0.266000000    -2.531000000
O     4.770000000    -4.906000000     2.330000000
H     5.053000000    -3.993000000     2.377000000
H     5.346000000    -5.301000000     1.674000000
O     6.568000000    -2.262000000     4.859000000
H     6.864000000    -3.123000000     4.561000000
H     5.874000000    -2.022000000     4.245000000
O     9.342000000    -0.266000000     0.268000000
H     9.396000000     0.652000000     0.001000000
H    10.007000000    -0.709000000    -0.259000000
O     4.337000000    -4.104000000    -0.525000000
H     4.955000000    -4.128000000    -1.255000000
H     4.662000000    -3.403000000     0.040000000
O     7.479000000    -4.860000000     4.470000000
H     6.734000000    -5.182000000     3.962000000
H     8.058000000    -5.618000000     4.553000000
O     4.275000000    -7.556000000     3.407000000
H     4.593000000    -8.002000000     2.623000000
H     4.358000000    -6.624000000     3.203000000
O     5.746000000    -5.042000000     6.830000000
H     5.203000000    -5.693000000     6.387000000
H     6.173000000    -4.563000000     6.120000000
O     7.072000000    -0.498000000     2.618000000
H     6.170000000    -0.792000000     2.747000000
H     7.112000000     0.350000000     3.062000000
O     5.533000000    -0.752000000     7.411000000
H     6.084000000    -1.349000000     6.905000000
H     4.639000000    -0.973000000     7.151000000
O     1.698000000    -3.908000000     0.817000000
H     1.332000000    -3.045000000     0.621000000
H     2.594000000    -3.868000000     0.484000000
O     6.925000000    -1.165000000    -0.710000000
H     7.660000000    -0.798000000    -0.218000000
H     6.353000000    -1.541000000    -0.041000000
O     9.753000000    -1.730000000     2.629000000
H     9.929000000    -1.316000000     3.473000000
H     9.516000000    -1.005000000     2.050000000
O     3.365000000    -6.685000000    -0.039000000
H     3.552000000    -5.771000000    -0.253000000
H     3.815000000    -6.833000000     0.793000000
O     3.155000000    -3.144000000     4.842000000
H     2.629000000    -3.831000000     4.432000000
H     3.626000000    -2.737000000     4.114000000
O     7.265000000    -3.353000000     1.813000000
H     6.420000000    -3.029000000     1.501000000
H     7.689000000    -2.585000000     2.196000000
O     1.504000000    -4.677000000     3.431000000
H     1.692000000    -4.439000000     2.523000000
H     0.665000000    -4.257000000     3.620000000
O     3.440000000    -2.986000000     7.474000000
H     4.083000000    -3.686000000     7.590000000
H     3.223000000    -3.013000000     6.543000000
O     8.786000000    -0.428000000     5.144000000
H     8.891000000     0.356000000     4.605000000
H     7.970000000    -0.822000000     4.836000000
O     6.151000000    -3.325000000    -2.150000000
H     6.501000000    -2.491000000    -1.838000000
H     6.418000000    -3.369000000    -3.069000000
