201
-1229.14309
C    -0.662000000     0.361000000     5.359000000
H    -1.564000000    -0.141000000     5.698000000
C    -0.679000000     1.410000000     4.423000000
C     0.509000000     2.064000000     4.137000000
H     0.534000000     2.641000000     3.216000000
C    -1.915000000     1.663000000     3.485000000
O    -3.079000000     1.002000000     4.011000000
H    -1.804000000     1.137000000     2.525000000
O    -2.205000000     3.067000000     3.338000000
C    -2.476000000     3.626000000     2.147000000
C    -1.515000000     4.323000000     1.508000000
H    -0.593000000     4.597000000     2.014000000
C    -1.619000000     4.518000000     0.116000000
O    -0.440000000     4.977000000    -0.529000000
C    -2.696000000     4.094000000    -0.574000000
C    -2.831000000     4.338000000    -2.107000000
H    -3.901000000     4.518000000    -2.231000000
C    -2.205000000     3.207000000    -2.932000000
C    -3.009000000     2.215000000    -3.468000000
H    -4.073000000     2.324000000    -3.277000000
H    -2.322000000     5.287000000    -2.288000000
C    -3.712000000     3.363000000     0.075000000
H    -4.503000000     2.890000000    -0.501000000
C    -3.664000000     3.206000000     1.439000000
C    -4.758000000     2.314000000     2.032000000
H    -5.734000000     2.471000000     1.568000000
H    -4.914000000     2.653000000     3.058000000
C    -4.431000000     0.828000000     1.988000000
C    -4.907000000     0.058000000     0.905000000
H    -5.448000000     0.563000000     0.109000000
C    -3.712000000     0.265000000     3.043000000
C    -3.532000000    -1.121000000     3.075000000
H    -2.776000000    -1.524000000     3.745000000
C    -4.024000000    -1.884000000     1.992000000
O    -3.455000000    -3.140000000     1.897000000
C    -2.376000000    -3.288000000     0.947000000
C    -1.174000000    -4.062000000     1.541000000
C    -0.284000000    -4.591000000     0.653000000
H    -0.480000000    -4.394000000    -0.397000000
C    -0.980000000    -4.326000000     2.909000000
H    -1.784000000    -4.047000000     3.585000000
O    -2.844000000    -3.841000000    -0.238000000
H    -1.954000000    -2.274000000     0.879000000
C    -4.695000000    -1.295000000     0.930000000
C    -5.175000000    -2.156000000    -0.189000000
H    -6.117000000    -1.776000000    -0.589000000
H    -5.312000000    -3.191000000     0.131000000
C    -4.092000000    -2.084000000    -1.285000000
C    -4.251000000    -1.153000000    -2.293000000
H    -5.079000000    -0.461000000    -2.163000000
C    -3.112000000    -3.022000000    -1.298000000
C    -2.134000000    -3.005000000    -2.313000000
H    -1.244000000    -3.623000000    -2.226000000
C    -2.249000000    -2.066000000    -3.271000000
O    -1.247000000    -1.993000000    -4.191000000
C    -0.201000000    -1.036000000    -4.095000000
C     1.214000000    -1.615000000    -4.345000000
C     1.487000000    -2.960000000    -4.230000000
H     0.779000000    -3.639000000    -3.762000000
C     2.232000000    -0.809000000    -4.944000000
H     2.100000000     0.266000000    -5.034000000
O    -0.518000000     0.094000000    -4.938000000
H    -0.196000000    -0.766000000    -3.029000000
C    -3.273000000    -1.111000000    -3.295000000
C    -3.424000000    -0.049000000    -4.348000000
H    -4.410000000     0.401000000    -4.483000000
H    -3.205000000    -0.535000000    -5.301000000
C    -2.471000000     1.124000000    -4.105000000
C    -1.117000000     1.140000000    -4.323000000
C    -0.233000000     2.078000000    -3.772000000
H     0.840000000     2.004000000    -3.931000000
C    -0.803000000     3.087000000    -2.991000000
O     0.035000000     3.989000000    -2.560000000
C     0.364000000     3.950000000    -1.171000000
H     0.227000000     2.959000000    -0.713000000
C     1.875000000     4.290000000    -1.048000000
C     2.433000000     5.067000000     0.004000000
H     1.791000000     5.634000000     0.674000000
C     2.745000000     3.669000000    -2.026000000
H     2.336000000     3.175000000    -2.904000000
C     4.158000000     3.864000000    -1.982000000
O     5.007000000     3.328000000    -2.953000000
C     4.673000000     4.439000000    -0.840000000
H     5.746000000     4.437000000    -0.661000000
C     3.834000000     5.063000000     0.088000000
O     4.398000000     5.508000000     1.224000000
C     3.776000000     5.288000000     2.484000000
C     3.410000000     3.985000000     2.782000000
H     3.488000000     3.273000000     1.965000000
C     3.643000000     6.261000000     3.467000000
H     4.048000000     7.239000000     3.219000000
C     3.092000000     5.950000000     4.748000000
H     3.051000000     6.643000000     5.584000000
C     2.810000000     4.590000000     5.054000000
H     2.611000000     4.281000000     6.077000000
C     3.041000000     3.614000000     4.082000000
O     2.876000000     2.249000000     4.428000000
C     1.687000000     1.729000000     4.843000000
C     1.731000000     0.736000000     5.777000000
H     2.709000000     0.461000000     6.163000000
C     0.528000000     0.060000000     6.030000000
O     0.598000000    -1.001000000     6.973000000
C     0.037000000    -2.233000000     6.887000000
C     0.357000000    -2.983000000     5.798000000
H     1.091000000    -2.619000000     5.084000000
C    -0.792000000    -2.773000000     7.886000000
H    -1.027000000    -2.223000000     8.794000000
C    -1.290000000    -4.037000000     7.707000000
H    -2.028000000    -4.488000000     8.365000000
C    -0.902000000    -4.816000000     6.635000000
H    -1.253000000    -5.833000000     6.478000000
C    -0.081000000    -4.313000000     5.701000000
O     0.344000000    -5.138000000     4.660000000
C     0.211000000    -4.894000000     3.326000000
C     1.090000000    -5.431000000     2.388000000
H     2.002000000    -5.928000000     2.708000000
C     0.857000000    -5.212000000     1.048000000
O     1.828000000    -5.751000000     0.228000000
C     1.681000000    -6.018000000    -1.080000000
C     2.388000000    -5.244000000    -2.030000000
H     3.094000000    -4.474000000    -1.730000000
C     0.911000000    -7.116000000    -1.531000000
H     0.499000000    -7.754000000    -0.753000000
C     0.986000000    -7.528000000    -2.852000000
H     0.568000000    -8.475000000    -3.184000000
C     1.746000000    -6.741000000    -3.717000000
H     1.844000000    -7.038000000    -4.758000000
C     2.381000000    -5.549000000    -3.366000000
O     3.114000000    -4.740000000    -4.212000000
C     2.728000000    -3.543000000    -4.667000000
C     3.779000000    -2.702000000    -5.075000000
H     4.702000000    -3.229000000    -5.306000000
C     3.514000000    -1.369000000    -5.244000000
O     4.424000000    -0.605000000    -5.815000000
C     4.461000000     0.759000000    -5.584000000
C     4.170000000     1.576000000    -6.659000000
H     4.135000000     1.231000000    -7.689000000
C     4.321000000     2.961000000    -6.538000000
H     4.390000000     3.630000000    -7.391000000
C     4.353000000     3.496000000    -5.296000000
H     4.372000000     4.583000000    -5.329000000
C     4.590000000     2.690000000    -4.150000000
C     4.665000000     1.297000000    -4.297000000
H     4.908000000     0.590000000    -3.508000000
O     3.291000000    -3.339000000     2.387000000
H     3.962000000    -3.625000000     1.767000000
H     2.478000000    -3.349000000     1.882000000
O     7.564000000     1.826000000    -4.572000000
H     7.683000000     1.633000000    -3.642000000
H     6.950000000     1.158000000    -4.878000000
O     7.201000000     1.162000000    -1.929000000
H     6.648000000     0.727000000    -1.279000000
H     7.621000000     1.874000000    -1.447000000
O     8.128000000     0.640000000     4.641000000
H     7.213000000     0.819000000     4.858000000
H     8.178000000     0.765000000     3.694000000
O     7.190000000     3.945000000     2.574000000
H     8.119000000     3.869000000     2.792000000
H     6.758000000     3.309000000     3.145000000
O     5.367000000    -3.646000000     0.484000000
H     5.965000000    -2.918000000     0.655000000
H     5.807000000    -4.410000000     0.858000000
O     4.951000000    -1.427000000     6.714000000
H     5.717000000    -2.000000000     6.677000000
H     4.608000000    -1.429000000     5.821000000
O     8.173000000    -1.207000000    -3.146000000
H     7.936000000    -0.378000000    -2.730000000
H     7.934000000    -1.090000000    -4.066000000
O     7.418000000     5.845000000     0.762000000
H     8.016000000     5.448000000     0.129000000
H     7.304000000     5.175000000     1.436000000
O     8.685000000     2.980000000    -0.587000000
H     9.607000000     2.914000000    -0.338000000
H     8.674000000     3.624000000    -1.295000000
O     4.672000000    -2.174000000    -1.665000000
H     5.063000000    -2.641000000    -0.927000000
H     4.788000000    -1.248000000    -1.452000000
O     5.497000000     1.662000000     4.346000000
H     5.375000000     1.189000000     3.523000000
H     4.760000000     2.272000000     4.384000000
O     7.138000000    -1.372000000     0.547000000
H     7.695000000    -0.815000000     1.092000000
H     6.364000000    -0.837000000     0.371000000
O     3.833000000    -4.013000000     4.946000000
H     4.424000000    -3.260000000     4.963000000
H     3.365000000    -3.932000000     4.115000000
O     9.410000000    -2.267000000    -0.683000000
H     9.080000000    -1.784000000    -1.441000000
H     8.691000000    -2.243000000    -0.052000000
O     4.458000000    -1.391000000     3.839000000
H     4.565000000    -0.646000000     3.248000000
H     4.119000000    -2.092000000     3.283000000
O     7.739000000     0.975000000     1.673000000
H     8.126000000     1.533000000     0.998000000
H     6.802000000     0.978000000     1.479000000
O     2.067000000    -2.271000000    -0.957000000
H     2.143000000    -1.472000000    -0.435000000
H     2.971000000    -2.530000000    -1.132000000
O     6.117000000     3.883000000     5.609000000
H     7.020000000     4.018000000     5.898000000
H     6.111000000     2.994000000     5.254000000
