201
-1268.91028
C    -0.092000000     2.543000000     4.074000000
H    -1.061000000     2.080000000     4.246000000
C     0.047000000     3.377000000     2.990000000
C     1.214000000     4.058000000     2.822000000
H     1.390000000     4.764000000     2.015000000
C    -1.021000000     3.442000000     1.879000000
O    -2.361000000     3.454000000     2.362000000
H    -0.806000000     2.634000000     1.164000000
O    -0.848000000     4.646000000     1.066000000
C    -0.997000000     4.449000000    -0.247000000
C     0.124000000     4.223000000    -0.979000000
H     1.117000000     4.274000000    -0.542000000
C    -0.013000000     3.890000000    -2.346000000
O     1.165000000     3.785000000    -3.007000000
C    -1.244000000     3.742000000    -3.000000000
C    -1.207000000     3.381000000    -4.457000000
H    -2.203000000     3.664000000    -4.805000000
C    -0.937000000     1.856000000    -4.659000000
C    -2.021000000     0.991000000    -4.660000000
H    -3.039000000     1.330000000    -4.484000000
H    -0.531000000     4.111000000    -4.907000000
C    -2.366000000     3.815000000    -2.212000000
H    -3.276000000     3.544000000    -2.741000000
C    -2.266000000     4.125000000    -0.839000000
C    -3.615000000     4.104000000    -0.118000000
H    -4.398000000     4.286000000    -0.857000000
H    -3.540000000     4.989000000     0.517000000
C    -3.860000000     2.816000000     0.614000000
C    -4.575000000     1.801000000    -0.032000000
H    -4.884000000     1.913000000    -1.068000000
C    -3.285000000     2.559000000     1.899000000
C    -3.479000000     1.344000000     2.580000000
H    -3.039000000     1.074000000     3.537000000
C    -4.253000000     0.376000000     1.892000000
O    -4.148000000    -0.921000000     2.373000000
C    -3.218000000    -1.890000000     1.871000000
C    -2.591000000    -2.690000000     3.003000000
C    -2.069000000    -3.932000000     2.769000000
H    -2.025000000    -4.307000000     1.750000000
C    -2.636000000    -2.074000000     4.259000000
H    -3.165000000    -1.160000000     4.517000000
O    -3.859000000    -2.810000000     1.005000000
H    -2.327000000    -1.536000000     1.332000000
C    -4.861000000     0.601000000     0.608000000
C    -5.552000000    -0.555000000    -0.130000000
H    -6.332000000    -0.230000000    -0.823000000
H    -6.009000000    -1.240000000     0.587000000
C    -4.545000000    -1.379000000    -0.908000000
C    -4.354000000    -1.047000000    -2.283000000
H    -4.842000000    -0.174000000    -2.711000000
C    -3.856000000    -2.430000000    -0.337000000
C    -2.965000000    -3.109000000    -1.131000000
H    -2.323000000    -3.834000000    -0.638000000
C    -2.745000000    -2.780000000    -2.481000000
O    -1.766000000    -3.463000000    -3.096000000
C    -0.479000000    -2.781000000    -3.197000000
C     0.658000000    -3.695000000    -2.709000000
C     0.377000000    -4.739000000    -1.795000000
H    -0.648000000    -4.862000000    -1.453000000
C     2.001000000    -3.313000000    -2.997000000
H     2.080000000    -2.397000000    -3.578000000
O    -0.285000000    -2.277000000    -4.541000000
H    -0.492000000    -1.912000000    -2.522000000
C    -3.405000000    -1.710000000    -3.099000000
C    -3.090000000    -1.343000000    -4.482000000
H    -3.927000000    -0.829000000    -4.960000000
H    -2.804000000    -2.237000000    -5.039000000
C    -1.875000000    -0.386000000    -4.664000000
C    -0.587000000    -0.903000000    -4.751000000
C     0.517000000    -0.034000000    -4.741000000
H     1.506000000    -0.464000000    -4.873000000
C     0.338000000     1.359000000    -4.650000000
O     1.472000000     2.093000000    -4.599000000
C     1.777000000     2.425000000    -3.209000000
H     1.293000000     1.664000000    -2.580000000
C     3.293000000     2.445000000    -2.907000000
C     3.794000000     3.316000000    -1.916000000
H     3.125000000     4.087000000    -1.542000000
C     4.204000000     1.474000000    -3.388000000
H     3.752000000     0.731000000    -4.040000000
C     5.524000000     1.388000000    -2.967000000
O     6.329000000     0.446000000    -3.475000000
C     5.976000000     2.251000000    -1.999000000
H     6.948000000     2.234000000    -1.513000000
C     5.100000000     3.248000000    -1.492000000
O     5.582000000     4.154000000    -0.570000000
C     4.944000000     4.978000000     0.356000000
C     4.314000000     4.373000000     1.448000000
H     4.251000000     3.289000000     1.491000000
C     4.987000000     6.360000000     0.289000000
H     5.440000000     6.821000000    -0.586000000
C     4.432000000     7.136000000     1.329000000
H     4.467000000     8.220000000     1.266000000
C     3.938000000     6.528000000     2.468000000
H     3.534000000     7.056000000     3.328000000
C     3.887000000     5.160000000     2.499000000
O     3.519000000     4.443000000     3.586000000
C     2.309000000     3.834000000     3.710000000
C     2.179000000     3.034000000     4.822000000
H     3.010000000     2.933000000     5.515000000
C     1.016000000     2.314000000     4.971000000
O     0.900000000     1.365000000     6.028000000
C    -0.300000000     0.797000000     6.461000000
C    -0.647000000    -0.549000000     6.304000000
H     0.068000000    -1.190000000     5.794000000
C    -1.014000000     1.598000000     7.398000000
H    -0.677000000     2.590000000     7.688000000
C    -2.167000000     1.129000000     7.986000000
H    -2.717000000     1.715000000     8.719000000
C    -2.653000000    -0.186000000     7.682000000
H    -3.556000000    -0.585000000     8.137000000
C    -1.852000000    -0.975000000     6.848000000
O    -2.302000000    -2.286000000     6.560000000
C    -2.292000000    -2.817000000     5.317000000
C    -1.770000000    -4.159000000     5.150000000
H    -1.468000000    -4.756000000     6.006000000
C    -1.639000000    -4.683000000     3.889000000
O    -1.196000000    -6.030000000     3.746000000
C    -1.126000000    -6.594000000     2.477000000
C    -0.098000000    -6.156000000     1.631000000
H     0.564000000    -5.354000000     1.950000000
C    -1.940000000    -7.655000000     2.082000000
H    -2.726000000    -8.075000000     2.705000000
C    -1.682000000    -8.217000000     0.836000000
H    -2.300000000    -8.999000000     0.403000000
C    -0.595000000    -7.812000000     0.046000000
H    -0.331000000    -8.318000000    -0.880000000
C     0.138000000    -6.733000000     0.412000000
O     1.238000000    -6.412000000    -0.250000000
C     1.410000000    -5.398000000    -1.150000000
C     2.737000000    -5.072000000    -1.507000000
H     3.580000000    -5.643000000    -1.126000000
C     2.999000000    -4.038000000    -2.366000000
O     4.306000000    -3.774000000    -2.537000000
C     4.803000000    -2.870000000    -3.452000000
C     4.498000000    -3.016000000    -4.827000000
H     3.930000000    -3.876000000    -5.174000000
C     4.933000000    -2.036000000    -5.740000000
H     4.754000000    -2.135000000    -6.807000000
C     5.592000000    -0.946000000    -5.243000000
H     5.955000000    -0.254000000    -5.999000000
C     5.828000000    -0.760000000    -3.877000000
C     5.398000000    -1.685000000    -2.963000000
H     5.520000000    -1.536000000    -1.893000000
O     2.894000000    -3.907000000     5.741000000
H     2.769000000    -3.196000000     5.113000000
H     2.198000000    -4.532000000     5.536000000
O     5.966000000    -2.263000000     7.406000000
H     6.019000000    -1.368000000     7.071000000
H     5.363000000    -2.206000000     8.147000000
O     6.875000000    -4.245000000     0.042000000
H     6.122000000    -4.831000000    -0.039000000
H     7.505000000    -4.735000000     0.570000000
O     7.893000000    -1.075000000     5.165000000
H     7.411000000    -0.260000000     5.305000000
H     7.220000000    -1.756000000     5.167000000
O     6.470000000     0.781000000     1.184000000
H     6.482000000    -0.103000000     0.818000000
H     5.584000000     0.885000000     1.530000000
O     6.720000000     1.447000000     4.443000000
H     6.024000000     0.793000000     4.500000000
H     6.397000000     2.186000000     4.960000000
O     5.838000000    -5.083000000     6.781000000
H     6.295000000    -4.258000000     6.617000000
H     4.924000000    -4.897000000     6.569000000
O     5.990000000    -1.793000000     0.527000000
H     6.357000000    -2.676000000     0.487000000
H     5.214000000    -1.881000000     1.081000000
O     3.224000000     0.036000000     7.217000000
H     2.362000000     0.449000000     7.262000000
H     3.219000000    -0.606000000     7.927000000
O     1.113000000    -5.696000000     5.066000000
H     1.328000000    -6.622000000     5.176000000
H     0.416000000    -5.688000000     4.409000000
O     4.448000000    -4.825000000     2.325000000
H     3.905000000    -4.055000000     2.158000000
H     4.983000000    -4.581000000     3.080000000
O     3.197000000    -7.229000000     2.777000000
H     2.724000000    -7.001000000     3.577000000
H     3.648000000    -6.423000000     2.527000000
O     9.099000000    -0.005000000     2.624000000
H     8.961000000    -0.311000000     3.520000000
H     8.217000000     0.109000000     2.270000000
O     6.075000000     1.026000000     7.702000000
H     5.121000000     0.958000000     7.661000000
H     6.264000000     1.921000000     7.420000000
O     5.561000000    -3.100000000     4.219000000
H     5.191000000    -2.711000000     3.426000000
H     4.930000000    -2.887000000     4.907000000
O     4.750000000    -0.421000000     4.850000000
H     4.047000000    -0.794000000     4.318000000
H     4.340000000    -0.241000000     5.696000000
O     8.026000000    -4.349000000     3.691000000
H     8.024000000    -5.054000000     4.338000000
H     7.298000000    -3.785000000     3.950000000
O     2.803000000    -4.735000000     8.338000000
H     2.699000000    -4.276000000     7.505000000
H     3.604000000    -4.371000000     8.714000000
O     5.731000000    -6.906000000     0.604000000
H     6.140000000    -7.596000000     1.126000000
H     5.197000000    -6.417000000     1.229000000
