201
-1229.53141
C     0.286000000     3.467000000     4.021000000
H    -0.650000000     2.922000000     4.113000000
C     0.521000000     4.121000000     2.828000000
C     1.799000000     4.580000000     2.549000000
H     2.103000000     5.013000000     1.600000000
C    -0.606000000     4.177000000     1.746000000
O    -1.930000000     4.346000000     2.215000000
H    -0.525000000     3.233000000     1.186000000
O    -0.289000000     5.141000000     0.766000000
C    -0.424000000     4.791000000    -0.631000000
C     0.690000000     4.489000000    -1.322000000
H     1.666000000     4.523000000    -0.845000000
C     0.573000000     3.881000000    -2.532000000
O     1.752000000     3.404000000    -3.209000000
C    -0.722000000     3.671000000    -3.125000000
C    -0.920000000     2.989000000    -4.476000000
H    -1.839000000     3.298000000    -4.979000000
C    -0.860000000     1.451000000    -4.494000000
C    -2.060000000     0.812000000    -4.460000000
H    -2.987000000     1.380000000    -4.455000000
H    -0.167000000     3.319000000    -5.195000000
C    -1.864000000     4.085000000    -2.457000000
H    -2.859000000     3.985000000    -2.882000000
C    -1.710000000     4.559000000    -1.129000000
C    -2.945000000     4.804000000    -0.385000000
H    -3.779000000     4.976000000    -1.069000000
H    -2.876000000     5.671000000     0.274000000
C    -3.344000000     3.582000000     0.424000000
C    -4.107000000     2.549000000    -0.155000000
H    -4.326000000     2.513000000    -1.220000000
C    -2.846000000     3.448000000     1.701000000
C    -3.096000000     2.290000000     2.468000000
H    -2.712000000     2.036000000     3.453000000
C    -3.887000000     1.287000000     1.863000000
O    -4.116000000     0.058000000     2.590000000
C    -3.259000000    -1.000000000     2.112000000
C    -2.703000000    -1.802000000     3.241000000
C    -2.241000000    -3.108000000     2.935000000
H    -2.382000000    -3.514000000     1.937000000
C    -2.591000000    -1.395000000     4.592000000
H    -2.917000000    -0.397000000     4.871000000
O    -4.156000000    -1.776000000     1.309000000
H    -2.489000000    -0.573000000     1.451000000
C    -4.379000000     1.437000000     0.581000000
C    -5.383000000     0.476000000    -0.052000000
H    -6.046000000     1.022000000    -0.727000000
H    -5.992000000     0.059000000     0.753000000
C    -4.685000000    -0.591000000    -0.782000000
C    -4.476000000    -0.527000000    -2.135000000
H    -4.815000000     0.335000000    -2.703000000
C    -4.238000000    -1.745000000    -0.073000000
C    -3.535000000    -2.747000000    -0.788000000
H    -3.118000000    -3.561000000    -0.202000000
C    -3.281000000    -2.654000000    -2.154000000
O    -2.497000000    -3.583000000    -2.802000000
C    -1.135000000    -3.307000000    -2.906000000
C    -0.194000000    -4.470000000    -2.556000000
C    -0.570000000    -5.461000000    -1.683000000
H    -1.576000000    -5.471000000    -1.271000000
C     1.067000000    -4.519000000    -3.091000000
H     1.406000000    -3.838000000    -3.868000000
O    -0.763000000    -2.705000000    -4.177000000
H    -0.877000000    -2.508000000    -2.194000000
C    -3.786000000    -1.536000000    -2.886000000
C    -3.406000000    -1.249000000    -4.353000000
H    -4.192000000    -0.580000000    -4.710000000
H    -3.451000000    -2.080000000    -5.059000000
C    -2.067000000    -0.551000000    -4.502000000
C    -0.868000000    -1.306000000    -4.415000000
C     0.308000000    -0.643000000    -4.348000000
H     1.204000000    -1.194000000    -4.074000000
C     0.389000000     0.748000000    -4.433000000
O     1.587000000     1.393000000    -4.358000000
C     2.001000000     2.009000000    -3.102000000
H     1.250000000     1.665000000    -2.375000000
C     3.375000000     1.560000000    -2.609000000
C     4.131000000     2.483000000    -1.914000000
H     3.763000000     3.506000000    -1.892000000
C     3.891000000     0.269000000    -2.803000000
H     3.377000000    -0.499000000    -3.376000000
C     5.141000000    -0.117000000    -2.324000000
O     5.519000000    -1.492000000    -2.330000000
C     5.909000000     0.824000000    -1.621000000
H     6.850000000     0.488000000    -1.191000000
C     5.386000000     2.105000000    -1.431000000
O     6.208000000     3.011000000    -0.815000000
C     5.799000000     4.002000000     0.005000000
C     5.144000000     3.786000000     1.209000000
H     4.885000000     2.792000000     1.563000000
C     6.103000000     5.340000000    -0.347000000
H     6.546000000     5.556000000    -1.315000000
C     5.771000000     6.428000000     0.496000000
H     5.978000000     7.463000000     0.236000000
C     5.119000000     6.174000000     1.657000000
H     4.688000000     6.998000000     2.219000000
C     4.696000000     4.882000000     2.007000000
O     4.105000000     4.706000000     3.204000000
C     2.802000000     4.345000000     3.441000000
C     2.545000000     3.762000000     4.659000000
H     3.398000000     3.536000000     5.294000000
C     1.295000000     3.242000000     4.991000000
O     1.176000000     2.376000000     6.063000000
C    -0.072000000     1.847000000     6.379000000
C    -0.128000000     0.439000000     6.453000000
H     0.723000000    -0.141000000     6.105000000
C    -1.085000000     2.631000000     6.880000000
H    -0.963000000     3.710000000     6.930000000
C    -2.304000000     1.985000000     7.258000000
H    -3.114000000     2.676000000     7.474000000
C    -2.425000000     0.622000000     7.320000000
H    -3.398000000     0.215000000     7.584000000
C    -1.318000000    -0.151000000     6.941000000
O    -1.439000000    -1.513000000     6.724000000
C    -1.672000000    -2.000000000     5.418000000
C    -1.167000000    -3.261000000     5.030000000
H    -0.515000000    -3.819000000     5.697000000
C    -1.488000000    -3.860000000     3.848000000
O    -0.938000000    -5.121000000     3.635000000
C    -1.340000000    -5.968000000     2.668000000
C    -0.462000000    -6.260000000     1.657000000
H     0.440000000    -5.691000000     1.448000000
C    -2.654000000    -6.535000000     2.697000000
H    -3.387000000    -6.242000000     3.444000000
C    -2.999000000    -7.492000000     1.727000000
H    -4.004000000    -7.904000000     1.680000000
C    -2.019000000    -7.857000000     0.768000000
H    -2.368000000    -8.608000000     0.065000000
C    -0.794000000    -7.231000000     0.730000000
O     0.013000000    -7.412000000    -0.390000000
C     0.311000000    -6.419000000    -1.312000000
C     1.578000000    -6.478000000    -1.779000000
H     2.304000000    -7.187000000    -1.390000000
C     1.993000000    -5.483000000    -2.630000000
O     3.229000000    -5.551000000    -3.273000000
C     3.805000000    -4.407000000    -3.766000000
C     4.024000000    -4.264000000    -5.130000000
H     3.485000000    -4.811000000    -5.899000000
C     4.800000000    -3.171000000    -5.550000000
H     5.037000000    -3.110000000    -6.609000000
C     5.264000000    -2.203000000    -4.618000000
H     5.749000000    -1.331000000    -5.048000000
C     5.129000000    -2.415000000    -3.278000000
C     4.419000000    -3.559000000    -2.859000000
H     4.123000000    -3.734000000    -1.827000000
O     6.099000000    -2.907000000     3.072000000
H     5.175000000    -3.077000000     2.884000000
H     6.401000000    -2.382000000     2.331000000
O     7.696000000    -5.014000000     1.042000000
H     7.442000000    -4.297000000     1.622000000
H     8.022000000    -4.580000000     0.253000000
O     3.204000000    -0.251000000     7.514000000
H     3.073000000     0.697000000     7.477000000
H     3.697000000    -0.393000000     8.323000000
O     7.559000000    -1.008000000     4.530000000
H     6.858000000    -0.546000000     4.989000000
H     7.105000000    -1.635000000     3.967000000
O     6.300000000    -1.996000000     0.429000000
H     6.170000000    -1.797000000    -0.498000000
H     5.426000000    -2.213000000     0.753000000
O     0.463000000    -8.436000000     3.793000000
H     0.081000000    -7.698000000     3.319000000
H     1.406000000    -8.276000000     3.767000000
O     6.524000000    -2.815000000     6.525000000
H     6.339000000    -2.898000000     5.589000000
H     6.054000000    -3.544000000     6.928000000
O     0.941000000    -4.496000000     8.110000000
H     1.360000000    -5.295000000     8.431000000
H     1.556000000    -4.147000000     7.464000000
O     8.399000000    -0.608000000     0.872000000
H     9.009000000    -1.260000000     1.218000000
H     7.616000000    -1.110000000     0.645000000
O     6.101000000     1.863000000     4.333000000
H     5.706000000     2.632000000     4.745000000
H     5.459000000     1.166000000     4.462000000
O     9.181000000    -3.424000000     5.451000000
H     8.227000000    -3.351000000     5.473000000
H     9.451000000    -3.313000000     6.363000000
O     2.741000000    -5.252000000     3.920000000
H     2.790000000    -4.296000000     3.909000000
H     2.666000000    -5.477000000     4.847000000
O     7.592000000     1.783000000     1.944000000
H     7.782000000     0.914000000     1.591000000
H     7.092000000     1.614000000     2.742000000
O     5.785000000    -7.323000000    -1.357000000
H     6.594000000    -7.408000000    -0.852000000
H     5.266000000    -6.682000000    -0.871000000
O     6.718000000    -5.016000000     4.526000000
H     6.278000000    -4.393000000     3.948000000
H     7.096000000    -5.666000000     3.934000000
O     3.086000000    -7.189000000     1.724000000
H     3.941000000    -6.961000000     1.359000000
H     2.984000000    -6.606000000     2.476000000
O     2.655000000    -2.825000000     6.468000000
H     3.098000000    -2.724000000     5.626000000
H     2.949000000    -2.075000000     6.985000000
O     4.303000000    -0.297000000     4.522000000
H     3.955000000    -1.082000000     4.099000000
H     3.781000000    -0.204000000     5.319000000
O     4.901000000    -5.216000000     0.487000000
H     5.767000000    -4.899000000     0.744000000
H     4.289000000    -4.628000000     0.929000000
