201
-1258.50892
C    -0.444000000     2.451000000     3.973000000
H    -1.459000000     2.095000000     3.813000000
C     0.063000000     3.342000000     3.067000000
C     1.279000000     3.900000000     3.289000000
H     1.780000000     4.583000000     2.608000000
C    -0.723000000     3.556000000     1.804000000
O    -2.162000000     3.628000000     2.050000000
H    -0.537000000     2.619000000     1.259000000
O    -0.232000000     4.762000000     1.180000000
C     0.006000000     4.633000000    -0.188000000
C     1.318000000     4.419000000    -0.592000000
H     1.998000000     4.517000000     0.250000000
C     1.664000000     4.119000000    -1.896000000
O     2.953000000     3.665000000    -2.120000000
C     0.647000000     4.087000000    -2.848000000
C     0.895000000     3.706000000    -4.281000000
H     0.035000000     4.172000000    -4.766000000
C     0.804000000     2.147000000    -4.350000000
C    -0.448000000     1.583000000    -4.632000000
H    -1.320000000     2.230000000    -4.683000000
H     1.843000000     4.178000000    -4.550000000
C    -0.622000000     4.421000000    -2.460000000
H    -1.397000000     4.445000000    -3.222000000
C    -0.994000000     4.638000000    -1.176000000
C    -2.428000000     4.737000000    -0.739000000
H    -2.998000000     5.002000000    -1.633000000
H    -2.493000000     5.543000000    -0.005000000
C    -3.096000000     3.466000000    -0.193000000
C    -3.855000000     2.684000000    -1.045000000
H    -3.855000000     3.065000000    -2.063000000
C    -2.860000000     2.995000000     1.095000000
C    -3.559000000     1.854000000     1.547000000
H    -3.352000000     1.498000000     2.553000000
C    -4.423000000     1.195000000     0.673000000
O    -4.961000000     0.015000000     1.046000000
C    -4.185000000    -1.194000000     0.827000000
C    -4.107000000    -2.112000000     1.993000000
C    -4.147000000    -3.441000000     1.825000000
H    -4.259000000    -3.826000000     0.815000000
C    -4.059000000    -1.593000000     3.316000000
H    -4.045000000    -0.524000000     3.514000000
O    -4.617000000    -1.841000000    -0.380000000
H    -3.135000000    -0.930000000     0.629000000
C    -4.582000000     1.561000000    -0.627000000
C    -5.360000000     0.686000000    -1.641000000
H    -5.974000000     1.255000000    -2.342000000
H    -6.086000000     0.092000000    -1.081000000
C    -4.403000000    -0.346000000    -2.259000000
C    -3.657000000     0.006000000    -3.443000000
H    -3.771000000     0.977000000    -3.918000000
C    -4.073000000    -1.519000000    -1.580000000
C    -3.104000000    -2.376000000    -2.107000000
H    -2.907000000    -3.338000000    -1.641000000
C    -2.407000000    -2.009000000    -3.242000000
O    -1.467000000    -2.962000000    -3.733000000
C    -0.137000000    -2.684000000    -3.299000000
C     0.510000000    -3.862000000    -2.668000000
C    -0.231000000    -4.704000000    -1.845000000
H    -1.311000000    -4.665000000    -1.730000000
C     1.906000000    -3.927000000    -2.643000000
H     2.427000000    -3.257000000    -3.322000000
O     0.599000000    -2.047000000    -4.392000000
H    -0.158000000    -1.957000000    -2.473000000
C    -2.693000000    -0.863000000    -3.938000000
C    -1.850000000    -0.435000000    -5.117000000
H    -2.492000000     0.255000000    -5.668000000
H    -1.760000000    -1.279000000    -5.805000000
C    -0.512000000     0.171000000    -4.682000000
C     0.667000000    -0.682000000    -4.546000000
C     1.873000000    -0.061000000    -4.260000000
H     2.690000000    -0.646000000    -3.845000000
C     1.944000000     1.320000000    -4.104000000
O     3.128000000     1.843000000    -3.641000000
C     3.122000000     2.218000000    -2.242000000
H     2.335000000     1.627000000    -1.752000000
C     4.391000000     1.761000000    -1.516000000
C     4.943000000     2.484000000    -0.484000000
H     4.591000000     3.489000000    -0.263000000
C     4.937000000     0.522000000    -1.811000000
H     4.408000000    -0.040000000    -2.576000000
C     6.063000000    -0.006000000    -1.120000000
O     6.638000000    -1.205000000    -1.348000000
C     6.520000000     0.704000000    -0.012000000
H     7.313000000     0.360000000     0.647000000
C     5.885000000     1.894000000     0.367000000
O     6.274000000     2.519000000     1.498000000
C     5.588000000     3.572000000     2.076000000
C     4.637000000     3.298000000     3.034000000
H     4.397000000     2.242000000     3.131000000
C     5.948000000     4.883000000     1.819000000
H     6.656000000     5.145000000     1.037000000
C     5.374000000     5.954000000     2.493000000
H     5.635000000     6.970000000     2.206000000
C     4.432000000     5.706000000     3.475000000
H     3.952000000     6.504000000     4.036000000
C     4.063000000     4.382000000     3.749000000
O     3.125000000     4.234000000     4.703000000
C     1.910000000     3.618000000     4.510000000
C     1.430000000     2.676000000     5.387000000
H     1.956000000     2.526000000     6.326000000
C     0.219000000     2.061000000     5.138000000
O    -0.249000000     1.139000000     5.985000000
C    -1.519000000     0.831000000     6.144000000
C    -1.906000000    -0.447000000     5.851000000
H    -1.254000000    -1.247000000     5.508000000
C    -2.414000000     1.772000000     6.660000000
H    -2.141000000     2.821000000     6.734000000
C    -3.747000000     1.408000000     6.877000000
H    -4.429000000     2.235000000     7.061000000
C    -4.162000000     0.087000000     6.622000000
H    -5.187000000    -0.225000000     6.807000000
C    -3.260000000    -0.765000000     5.961000000
O    -3.745000000    -2.057000000     5.684000000
C    -3.892000000    -2.498000000     4.346000000
C    -3.894000000    -3.863000000     4.151000000
H    -3.690000000    -4.553000000     4.966000000
C    -4.109000000    -4.354000000     2.901000000
O    -3.944000000    -5.734000000     2.692000000
C    -3.452000000    -6.231000000     1.554000000
C    -2.131000000    -6.063000000     1.269000000
H    -1.450000000    -5.485000000     1.890000000
C    -4.330000000    -7.021000000     0.728000000
H    -5.372000000    -7.090000000     1.028000000
C    -3.846000000    -7.452000000    -0.503000000
H    -4.556000000    -7.910000000    -1.188000000
C    -2.510000000    -7.280000000    -0.838000000
H    -2.124000000    -7.663000000    -1.779000000
C    -1.616000000    -6.634000000     0.092000000
O    -0.239000000    -6.529000000    -0.203000000
C     0.490000000    -5.651000000    -1.036000000
C     1.858000000    -5.704000000    -1.082000000
H     2.302000000    -6.399000000    -0.374000000
C     2.583000000    -4.871000000    -1.860000000
O     3.938000000    -5.129000000    -2.080000000
C     4.770000000    -4.105000000    -2.538000000
C     4.985000000    -3.967000000    -3.940000000
H     4.384000000    -4.558000000    -4.626000000
C     5.880000000    -3.006000000    -4.415000000
H     5.936000000    -2.831000000    -5.486000000
C     6.433000000    -2.157000000    -3.536000000
H     7.197000000    -1.447000000    -3.841000000
C     6.146000000    -2.228000000    -2.171000000
C     5.261000000    -3.186000000    -1.619000000
H     4.911000000    -3.110000000    -0.592000000
O     8.716000000    -2.935000000     3.346000000
H     8.119000000    -2.733000000     2.625000000
H     8.308000000    -2.535000000     4.114000000
O     1.003000000    -0.979000000     7.748000000
H     0.438000000    -0.285000000     7.410000000
H     1.716000000    -0.514000000     8.187000000
O     7.451000000    -2.431000000     5.838000000
H     8.014000000    -2.777000000     6.530000000
H     6.772000000    -1.942000000     6.302000000
O     6.218000000    -1.377000000     2.473000000
H     6.614000000    -1.705000000     1.665000000
H     5.381000000    -1.836000000     2.532000000
O     7.945000000     0.400000000     3.405000000
H     7.696000000     1.229000000     2.996000000
H     7.217000000    -0.191000000     3.211000000
O     0.043000000    -4.913000000     3.926000000
H     0.738000000    -4.836000000     3.272000000
H     0.208000000    -4.194000000     4.536000000
O     4.219000000    -3.839000000     5.835000000
H     5.068000000    -3.700000000     5.415000000
H     3.600000000    -3.358000000     5.286000000
O     5.634000000    -6.953000000     4.288000000
H     5.579000000    -6.173000000     3.735000000
H     6.249000000    -6.712000000     4.981000000
O     3.580000000    -6.286000000     6.761000000
H     2.626000000    -6.217000000     6.715000000
H     3.898000000    -5.619000000     6.153000000
O     2.449000000    -5.164000000     2.731000000
H     2.721000000    -4.254000000     2.848000000
H     3.267000000    -5.661000000     2.734000000
O     0.663000000    -7.213000000     5.367000000
H     0.257000000    -6.445000000     4.964000000
H    -0.032000000    -7.598000000     5.900000000
O     6.717000000    -5.210000000    -0.020000000
H     6.819000000    -6.068000000     0.392000000
H     6.394000000    -5.403000000    -0.900000000
O     6.427000000     0.596000000     6.028000000
H     6.917000000     0.312000000     5.256000000
H     5.509000000     0.476000000     5.786000000
O     7.497000000    -2.859000000     0.586000000
H     7.434000000    -3.807000000     0.475000000
H     7.908000000    -2.549000000    -0.221000000
O     3.179000000    -2.709000000     9.070000000
H     3.144000000    -3.661000000     9.156000000
H     3.395000000    -2.559000000     8.150000000
O     1.451000000    -7.820000000     2.761000000
H     1.609000000    -6.912000000     2.503000000
H     1.399000000    -7.792000000     3.716000000
O     0.835000000    -2.681000000     5.494000000
H     1.432000000    -2.460000000     4.780000000
H     1.150000000    -2.166000000     6.238000000
O     3.964000000     0.533000000     5.367000000
H     3.585000000    -0.132000000     4.793000000
H     3.227000000     1.098000000     5.599000000
O     5.541000000    -4.758000000     2.685000000
H     5.986000000    -4.874000000     1.845000000
H     4.997000000    -3.980000000     2.563000000
