201
-1239.72324
C    -1.566000000     2.182000000     4.125000000
H    -2.592000000     1.829000000     4.055000000
C    -1.070000000     3.048000000     3.129000000
C     0.168000000     3.618000000     3.180000000
H     0.532000000     4.289000000     2.407000000
C    -1.931000000     3.244000000     1.851000000
O    -3.371000000     2.981000000     1.979000000
H    -1.547000000     2.447000000     1.198000000
O    -1.613000000     4.523000000     1.233000000
C    -1.424000000     4.488000000    -0.127000000
C    -0.123000000     4.744000000    -0.537000000
H     0.575000000     5.027000000     0.248000000
C     0.296000000     4.485000000    -1.813000000
O     1.663000000     4.344000000    -2.125000000
C    -0.679000000     4.124000000    -2.780000000
C    -0.250000000     3.766000000    -4.226000000
H    -0.910000000     4.111000000    -5.025000000
C     0.147000000     2.306000000    -4.290000000
C    -0.844000000     1.329000000    -4.597000000
H    -1.829000000     1.662000000    -4.916000000
H     0.662000000     4.344000000    -4.391000000
C    -2.005000000     3.861000000    -2.357000000
H    -2.776000000     3.576000000    -3.068000000
C    -2.407000000     4.117000000    -1.076000000
C    -3.899000000     4.018000000    -0.739000000
H    -4.448000000     4.317000000    -1.635000000
H    -4.248000000     4.813000000    -0.077000000
C    -4.243000000     2.618000000    -0.218000000
C    -4.762000000     1.659000000    -1.142000000
H    -4.795000000     2.024000000    -2.165000000
C    -3.944000000     2.216000000     1.088000000
C    -4.121000000     0.955000000     1.406000000
H    -3.839000000     0.621000000     2.401000000
C    -4.631000000    -0.018000000     0.547000000
O    -4.527000000    -1.348000000     0.988000000
C    -3.505000000    -2.181000000     0.580000000
C    -2.924000000    -3.028000000     1.753000000
C    -2.200000000    -4.219000000     1.508000000
H    -2.083000000    -4.622000000     0.505000000
C    -2.993000000    -2.488000000     3.023000000
H    -3.697000000    -1.678000000     3.198000000
O    -3.943000000    -3.061000000    -0.496000000
H    -2.695000000    -1.565000000     0.164000000
C    -4.955000000     0.321000000    -0.780000000
C    -5.418000000    -0.766000000    -1.727000000
H    -6.124000000    -0.172000000    -2.311000000
H    -6.025000000    -1.448000000    -1.127000000
C    -4.232000000    -1.422000000    -2.393000000
C    -3.643000000    -0.907000000    -3.519000000
H    -4.165000000    -0.045000000    -3.925000000
C    -3.660000000    -2.593000000    -1.819000000
C    -2.554000000    -3.111000000    -2.349000000
H    -2.047000000    -3.926000000    -1.840000000
C    -1.929000000    -2.526000000    -3.413000000
O    -0.673000000    -3.041000000    -3.754000000
C     0.597000000    -2.427000000    -3.448000000
C     1.585000000    -3.483000000    -2.864000000
C     1.145000000    -4.745000000    -2.510000000
H     0.114000000    -4.982000000    -2.761000000
C     2.793000000    -3.089000000    -2.462000000
H     3.052000000    -2.038000000    -2.565000000
O     1.131000000    -1.762000000    -4.612000000
H     0.453000000    -1.644000000    -2.690000000
C    -2.515000000    -1.449000000    -4.124000000
C    -1.739000000    -0.797000000    -5.225000000
H    -2.460000000    -0.171000000    -5.754000000
H    -1.382000000    -1.456000000    -6.020000000
C    -0.541000000    -0.030000000    -4.768000000
C     0.794000000    -0.443000000    -4.618000000
C     1.699000000     0.427000000    -4.093000000
H     2.718000000     0.179000000    -3.805000000
C     1.461000000     1.769000000    -4.037000000
O     2.398000000     2.530000000    -3.432000000
C     2.252000000     3.014000000    -2.055000000
H     1.641000000     2.220000000    -1.601000000
C     3.629000000     3.108000000    -1.375000000
C     4.036000000     4.149000000    -0.492000000
H     3.319000000     4.954000000    -0.355000000
C     4.476000000     1.997000000    -1.555000000
H     4.193000000     1.147000000    -2.170000000
C     5.705000000     1.990000000    -0.870000000
O     6.548000000     0.865000000    -0.949000000
C     6.079000000     3.013000000     0.033000000
H     6.939000000     2.897000000     0.687000000
C     5.175000000     4.069000000     0.256000000
O     5.416000000     4.930000000     1.297000000
C     4.420000000     5.356000000     2.108000000
C     3.698000000     4.371000000     2.843000000
H     3.929000000     3.322000000     2.678000000
C     4.203000000     6.693000000     2.335000000
H     4.863000000     7.459000000     1.935000000
C     3.277000000     7.062000000     3.301000000
H     3.190000000     8.128000000     3.495000000
C     2.520000000     6.159000000     3.991000000
H     1.801000000     6.493000000     4.734000000
C     2.679000000     4.816000000     3.672000000
O     2.173000000     3.904000000     4.526000000
C     0.938000000     3.345000000     4.325000000
C     0.527000000     2.489000000     5.286000000
H     1.207000000     2.241000000     6.098000000
C    -0.754000000     1.905000000     5.211000000
O    -1.185000000     1.050000000     6.225000000
C    -2.327000000     0.298000000     6.178000000
C    -2.188000000    -0.927000000     5.773000000
H    -1.206000000    -1.310000000     5.509000000
C    -3.504000000     0.816000000     6.571000000
H    -3.562000000     1.883000000     6.770000000
C    -4.591000000    -0.047000000     6.705000000
H    -5.573000000     0.305000000     7.009000000
C    -4.451000000    -1.350000000     6.292000000
H    -5.272000000    -2.063000000     6.307000000
C    -3.261000000    -1.751000000     5.824000000
O    -3.051000000    -3.056000000     5.403000000
C    -2.574000000    -3.324000000     4.129000000
C    -1.769000000    -4.417000000     3.885000000
H    -1.403000000    -5.096000000     4.651000000
C    -1.541000000    -4.852000000     2.588000000
O    -0.834000000    -6.035000000     2.447000000
C    -0.743000000    -6.733000000     1.241000000
C     0.291000000    -6.336000000     0.447000000
H     0.888000000    -5.433000000     0.545000000
C    -1.486000000    -7.900000000     1.051000000
H    -2.268000000    -8.128000000     1.770000000
C    -1.239000000    -8.761000000    -0.022000000
H    -1.810000000    -9.680000000    -0.132000000
C    -0.282000000    -8.398000000    -0.964000000
H    -0.044000000    -9.042000000    -1.807000000
C     0.459000000    -7.179000000    -0.688000000
O     1.581000000    -6.907000000    -1.448000000
C     2.010000000    -5.628000000    -1.832000000
C     3.288000000    -5.211000000    -1.470000000
H     3.966000000    -5.833000000    -0.891000000
C     3.754000000    -3.958000000    -1.903000000
O     5.038000000    -3.536000000    -1.462000000
C     5.678000000    -2.452000000    -1.954000000
C     6.389000000    -2.513000000    -3.151000000
H     6.354000000    -3.382000000    -3.802000000
C     7.106000000    -1.393000000    -3.624000000
H     7.603000000    -1.476000000    -4.587000000
C     7.148000000    -0.266000000    -2.863000000
H     7.636000000     0.640000000    -3.212000000
C     6.421000000    -0.291000000    -1.655000000
C     5.674000000    -1.302000000    -1.155000000
H     5.275000000    -1.330000000    -0.144000000
O     3.684000000    -3.334000000     6.472000000
H     3.103000000    -2.795000000     7.009000000
H     3.150000000    -3.583000000     5.717000000
O     0.727000000    -5.317000000     8.717000000
H     0.020000000    -5.720000000     9.221000000
H     0.365000000    -5.216000000     7.836000000
O     4.059000000    -6.979000000     1.789000000
H     3.756000000    -6.205000000     2.262000000
H     3.821000000    -7.714000000     2.355000000
O     6.123000000    -1.956000000     6.275000000
H     5.236000000    -2.315000000     6.266000000
H     6.221000000    -1.581000000     7.150000000
O     4.047000000    -9.083000000     3.735000000
H     4.879000000    -8.712000000     4.028000000
H     3.597000000    -9.330000000     4.543000000
O     5.438000000    -1.149000000     3.593000000
H     5.844000000    -1.492000000     4.390000000
H     5.713000000    -1.755000000     2.905000000
O     6.970000000    -5.885000000     1.526000000
H     6.190000000    -6.366000000     1.802000000
H     7.637000000    -6.561000000     1.403000000
O     6.025000000    -4.742000000     7.817000000
H     5.159000000    -4.499000000     7.492000000
H     5.937000000    -4.726000000     8.770000000
O     5.403000000    -7.654000000     7.502000000
H     4.518000000    -7.373000000     7.273000000
H     5.788000000    -6.898000000     7.946000000
O     4.714000000    -8.458000000    -0.676000000
H     4.637000000    -7.774000000    -0.011000000
H     5.261000000    -8.069000000    -1.358000000
O    -0.869000000    -7.804000000     5.895000000
H    -0.426000000    -8.281000000     6.597000000
H    -0.285000000    -7.890000000     5.141000000
O     6.388000000    -7.753000000     3.903000000
H     6.260000000    -6.904000000     4.326000000
H     6.794000000    -8.298000000     4.577000000
O     6.060000000     1.489000000     3.007000000
H     6.917000000     1.455000000     2.582000000
H     5.828000000     0.572000000     3.153000000
O     6.255000000    -3.488000000     2.300000000
H     5.429000000    -3.686000000     2.741000000
H     6.413000000    -4.245000000     1.736000000
O     1.537000000    -6.977000000     4.620000000
H     1.416000000    -6.441000000     3.837000000
H     2.142000000    -6.473000000     5.164000000
O     2.990000000    -0.273000000     4.947000000
H     3.926000000    -0.119000000     5.075000000
H     2.935000000    -0.734000000     4.110000000
O     0.668000000    -4.240000000     6.351000000
H     1.185000000    -4.468000000     5.578000000
H     0.857000000    -3.314000000     6.500000000
O     1.082000000    -1.461000000     6.346000000
H     1.687000000    -0.994000000     5.769000000
H     0.422000000    -0.809000000     6.580000000
O     5.577000000    -5.398000000     4.633000000
H     5.515000000    -4.724000000     5.309000000
H     4.772000000    -5.300000000     4.123000000
