201
-1246.76492
C    -1.189000000     1.925000000     5.094000000
H    -2.273000000     1.856000000     5.147000000
C    -0.655000000     2.586000000     3.987000000
C     0.727000000     2.859000000     4.002000000
H     1.174000000     3.324000000     3.127000000
C    -1.588000000     2.764000000     2.748000000
O    -2.994000000     2.575000000     2.988000000
H    -1.335000000     2.033000000     1.966000000
O    -1.294000000     4.107000000     2.325000000
C    -1.217000000     4.293000000     0.921000000
C     0.037000000     4.461000000     0.395000000
H     0.907000000     4.521000000     1.045000000
C     0.177000000     4.537000000    -0.950000000
O     1.432000000     4.509000000    -1.486000000
C    -0.930000000     4.425000000    -1.797000000
C    -0.807000000     4.327000000    -3.307000000
H    -1.737000000     4.628000000    -3.794000000
C    -0.512000000     2.910000000    -3.818000000
C    -1.540000000     2.058000000    -4.187000000
H    -2.561000000     2.422000000    -4.108000000
H    -0.077000000     5.072000000    -3.632000000
C    -2.182000000     4.277000000    -1.263000000
H    -3.113000000     4.304000000    -1.823000000
C    -2.371000000     4.177000000     0.088000000
C    -3.828000000     3.999000000     0.573000000
H    -4.519000000     4.376000000    -0.184000000
H    -4.051000000     4.582000000     1.469000000
C    -4.078000000     2.526000000     0.857000000
C    -4.766000000     1.777000000    -0.074000000
H    -4.981000000     2.166000000    -1.066000000
C    -3.801000000     1.943000000     2.038000000
C    -4.045000000     0.553000000     2.218000000
H    -3.762000000     0.081000000     3.155000000
C    -4.612000000    -0.223000000     1.202000000
O    -4.672000000    -1.560000000     1.357000000
C    -3.585000000    -2.337000000     0.822000000
C    -2.915000000    -3.336000000     1.777000000
C    -2.181000000    -4.395000000     1.244000000
H    -2.022000000    -4.404000000     0.169000000
C    -2.988000000    -3.093000000     3.165000000
H    -3.541000000    -2.235000000     3.539000000
O    -4.047000000    -2.966000000    -0.384000000
H    -2.878000000    -1.538000000     0.554000000
C    -4.949000000     0.433000000     0.042000000
C    -5.512000000    -0.438000000    -1.084000000
H    -5.911000000     0.209000000    -1.868000000
H    -6.425000000    -0.998000000    -0.871000000
C    -4.406000000    -1.118000000    -1.944000000
C    -3.969000000    -0.451000000    -3.066000000
H    -4.334000000     0.552000000    -3.270000000
C    -3.825000000    -2.338000000    -1.606000000
C    -2.859000000    -2.908000000    -2.402000000
H    -2.444000000    -3.871000000    -2.116000000
C    -2.376000000    -2.235000000    -3.478000000
O    -1.211000000    -2.732000000    -4.075000000
C    -0.036000000    -1.959000000    -3.945000000
C     1.133000000    -2.906000000    -3.753000000
C     0.928000000    -4.182000000    -3.187000000
H    -0.061000000    -4.574000000    -2.961000000
C     2.465000000    -2.563000000    -4.065000000
H     2.589000000    -1.551000000    -4.443000000
O     0.182000000    -1.003000000    -4.983000000
H    -0.173000000    -1.383000000    -3.019000000
C    -2.956000000    -1.016000000    -3.867000000
C    -2.423000000    -0.179000000    -5.049000000
H    -3.223000000     0.499000000    -5.353000000
H    -2.147000000    -0.790000000    -5.911000000
C    -1.267000000     0.803000000    -4.653000000
C     0.022000000     0.381000000    -4.738000000
C     1.027000000     1.116000000    -4.245000000
H     2.046000000     0.739000000    -4.202000000
C     0.834000000     2.442000000    -3.871000000
O     1.958000000     3.077000000    -3.410000000
C     1.947000000     3.230000000    -1.929000000
H     1.330000000     2.413000000    -1.525000000
C     3.414000000     3.083000000    -1.416000000
C     3.824000000     3.651000000    -0.203000000
H     3.129000000     4.245000000     0.384000000
C     4.293000000     2.208000000    -2.091000000
H     4.038000000     1.793000000    -3.062000000
C     5.474000000     1.695000000    -1.480000000
O     6.408000000     0.886000000    -2.034000000
C     5.821000000     2.255000000    -0.260000000
H     6.771000000     1.880000000     0.111000000
C     5.070000000     3.262000000     0.350000000
O     5.578000000     4.019000000     1.409000000
C     4.826000000     4.512000000     2.477000000
C     4.287000000     3.522000000     3.287000000
H     4.453000000     2.474000000     3.052000000
C     4.766000000     5.790000000     2.947000000
H     5.209000000     6.555000000     2.314000000
C     3.990000000     6.103000000     4.106000000
H     4.017000000     7.133000000     4.453000000
C     3.370000000     5.116000000     4.828000000
H     2.783000000     5.355000000     5.712000000
C     3.454000000     3.797000000     4.361000000
O     2.910000000     2.794000000     5.092000000
C     1.580000000     2.462000000     5.080000000
C     0.998000000     1.746000000     6.132000000
H     1.547000000     1.416000000     7.010000000
C    -0.363000000     1.503000000     6.117000000
O    -0.965000000     0.879000000     7.231000000
C    -1.746000000    -0.246000000     6.981000000
C    -1.403000000    -1.350000000     6.129000000
H    -0.383000000    -1.369000000     5.752000000
C    -3.041000000    -0.241000000     7.581000000
H    -3.414000000     0.615000000     8.137000000
C    -3.971000000    -1.307000000     7.371000000
H    -4.949000000    -1.266000000     7.844000000
C    -3.565000000    -2.365000000     6.602000000
H    -4.259000000    -3.194000000     6.488000000
C    -2.321000000    -2.408000000     6.002000000
O    -2.039000000    -3.643000000     5.382000000
C    -2.134000000    -3.828000000     4.005000000
C    -1.469000000    -4.975000000     3.486000000
H    -0.769000000    -5.522000000     4.113000000
C    -1.425000000    -5.233000000     2.055000000
O    -0.515000000    -6.163000000     1.625000000
C    -0.430000000    -6.574000000     0.333000000
C     0.671000000    -6.242000000    -0.432000000
H     1.476000000    -5.756000000     0.113000000
C    -1.436000000    -7.362000000    -0.172000000
H    -2.392000000    -7.444000000     0.340000000
C    -1.330000000    -7.796000000    -1.484000000
H    -2.140000000    -8.343000000    -1.960000000
C    -0.203000000    -7.487000000    -2.216000000
H    -0.130000000    -7.927000000    -3.207000000
C     0.814000000    -6.703000000    -1.741000000
O     1.816000000    -6.383000000    -2.596000000
C     1.958000000    -5.097000000    -3.061000000
C     3.237000000    -4.730000000    -3.397000000
H     4.076000000    -5.420000000    -3.435000000
C     3.545000000    -3.420000000    -3.826000000
O     4.818000000    -3.082000000    -4.261000000
C     5.319000000    -1.789000000    -4.319000000
C     5.830000000    -1.327000000    -5.535000000
H     5.637000000    -1.958000000    -6.399000000
C     6.626000000    -0.186000000    -5.572000000
H     6.975000000     0.164000000    -6.540000000
C     6.829000000     0.525000000    -4.386000000
H     7.444000000     1.419000000    -4.329000000
C     6.251000000     0.150000000    -3.194000000
C     5.513000000    -1.034000000    -3.170000000
H     5.171000000    -1.403000000    -2.206000000
O     5.262000000     0.164000000     4.671000000
H     5.062000000     0.181000000     3.735000000
H     4.413000000     0.035000000     5.094000000
O     4.872000000    -3.534000000     4.789000000
H     4.186000000    -3.922000000     5.333000000
H     4.543000000    -3.616000000     3.894000000
O     2.788000000    -8.754000000     6.334000000
H     2.383000000    -8.383000000     5.550000000
H     3.707000000    -8.874000000     6.095000000
O     2.821000000    -1.020000000     5.573000000
H     2.357000000    -1.585000000     6.191000000
H     2.761000000    -1.480000000     4.736000000
O     2.361000000    -5.934000000     4.954000000
H     2.871000000    -6.393000000     4.286000000
H     2.237000000    -5.054000000     4.598000000
O     6.107000000    -6.146000000     3.710000000
H     6.048000000    -5.250000000     3.378000000
H     5.709000000    -6.682000000     3.023000000
O     4.605000000    -5.890000000     1.369000000
H     4.042000000    -5.166000000     1.642000000
H     4.841000000    -5.682000000     0.465000000
O     0.910000000    -5.847000000     7.376000000
H     1.481000000    -6.214000000     8.051000000
H     1.169000000    -6.298000000     6.572000000
O     3.786000000    -0.119000000     2.415000000
H     4.276000000    -0.757000000     1.895000000
H     2.904000000    -0.134000000     2.044000000
O     5.424000000    -2.437000000     1.639000000
H     4.681000000    -2.951000000     1.957000000
H     6.105000000    -3.085000000     1.461000000
O     0.280000000    -8.280000000     4.934000000
H     0.268000000    -9.235000000     4.998000000
H    -0.640000000    -8.024000000     5.006000000
O     3.762000000    -8.217000000     0.172000000
H     3.968000000    -7.664000000     0.926000000
H     3.155000000    -8.873000000     0.514000000
O     0.725000000    -2.496000000     9.041000000
H     0.727000000    -2.534000000     8.085000000
H    -0.177000000    -2.698000000     9.288000000
O     7.096000000    -1.819000000     5.205000000
H     6.567000000    -1.049000000     4.997000000
H     6.478000000    -2.549000000     5.177000000
O     1.662000000    -8.082000000     2.463000000
H     1.448000000    -7.729000000     3.327000000
H     1.216000000    -7.498000000     1.849000000
O     7.433000000    -4.139000000     1.120000000
H     8.044000000    -4.863000000     1.251000000
H     7.966000000    -3.442000000     0.735000000
O     0.972000000    -3.321000000     6.211000000
H     0.902000000    -4.174000000     6.640000000
H     0.979000000    -3.523000000     5.275000000
O     7.486000000    -0.706000000     2.452000000
H     6.588000000    -0.969000000     2.250000000
H     7.726000000    -1.236000000     3.212000000
O     4.271000000    -5.559000000     7.556000000
H     3.988000000    -6.165000000     8.241000000
H     3.764000000    -5.815000000     6.785000000
