201
-1247.54198
C     1.014000000     1.432000000     4.457000000
H     0.292000000     0.631000000     4.590000000
C     0.749000000     2.620000000     3.768000000
C     1.731000000     3.664000000     3.673000000
H     1.435000000     4.464000000     3.000000000
C    -0.561000000     2.688000000     3.086000000
O    -1.716000000     2.293000000     3.964000000
H    -0.470000000     2.109000000     2.155000000
O    -0.868000000     4.035000000     2.613000000
C    -1.413000000     4.084000000     1.328000000
C    -0.453000000     4.404000000     0.371000000
H     0.567000000     4.543000000     0.722000000
C    -0.838000000     4.409000000    -0.985000000
O     0.233000000     4.528000000    -1.894000000
C    -2.181000000     4.154000000    -1.361000000
C    -2.652000000     4.126000000    -2.777000000
H    -3.733000000     4.267000000    -2.832000000
C    -2.385000000     2.724000000    -3.367000000
C    -3.395000000     1.734000000    -3.330000000
H    -4.404000000     1.928000000    -2.976000000
H    -2.256000000     5.031000000    -3.243000000
C    -3.102000000     3.845000000    -0.299000000
H    -4.150000000     3.634000000    -0.497000000
C    -2.730000000     3.830000000     1.072000000
C    -3.840000000     3.580000000     2.099000000
H    -4.808000000     3.774000000     1.633000000
H    -3.630000000     4.282000000     2.908000000
C    -3.629000000     2.064000000     2.470000000
C    -4.523000000     1.156000000     1.875000000
H    -5.265000000     1.563000000     1.193000000
C    -2.675000000     1.501000000     3.349000000
C    -2.611000000     0.118000000     3.658000000
H    -1.827000000    -0.323000000     4.268000000
C    -3.514000000    -0.715000000     3.002000000
O    -3.212000000    -2.062000000     3.162000000
C    -2.463000000    -2.701000000     2.255000000
C    -1.468000000    -3.739000000     2.824000000
C    -1.170000000    -4.958000000     2.164000000
H    -1.546000000    -5.127000000     1.158000000
C    -0.880000000    -3.503000000     4.032000000
H    -1.088000000    -2.571000000     4.551000000
O    -3.351000000    -3.400000000     1.312000000
H    -1.777000000    -1.988000000     1.774000000
C    -4.426000000    -0.233000000     2.080000000
C    -5.286000000    -1.209000000     1.329000000
H    -6.244000000    -0.691000000     1.242000000
H    -5.465000000    -2.072000000     1.973000000
C    -4.574000000    -1.677000000     0.060000000
C    -4.752000000    -1.064000000    -1.169000000
H    -5.342000000    -0.154000000    -1.239000000
C    -3.663000000    -2.762000000     0.130000000
C    -2.982000000    -3.234000000    -0.983000000
H    -2.231000000    -4.014000000    -0.896000000
C    -3.129000000    -2.503000000    -2.197000000
O    -2.240000000    -2.831000000    -3.186000000
C    -1.091000000    -1.974000000    -3.304000000
C     0.164000000    -2.782000000    -3.531000000
C     0.506000000    -3.822000000    -2.664000000
H    -0.197000000    -4.049000000    -1.866000000
C     1.075000000    -2.373000000    -4.504000000
H     0.856000000    -1.489000000    -5.097000000
O    -1.272000000    -1.008000000    -4.393000000
H    -0.929000000    -1.421000000    -2.367000000
C    -4.075000000    -1.450000000    -2.335000000
C    -4.133000000    -0.622000000    -3.612000000
H    -5.073000000    -0.109000000    -3.828000000
H    -4.052000000    -1.299000000    -4.465000000
C    -3.062000000     0.437000000    -3.719000000
C    -1.780000000     0.202000000    -4.154000000
C    -0.768000000     1.164000000    -4.172000000
H     0.261000000     0.914000000    -4.416000000
C    -1.117000000     2.456000000    -3.824000000
O    -0.099000000     3.389000000    -3.735000000
C     0.645000000     3.344000000    -2.513000000
H     0.284000000     2.499000000    -1.909000000
C     2.181000000     3.272000000    -2.592000000
C     2.903000000     3.771000000    -1.557000000
H     2.486000000     4.263000000    -0.682000000
C     2.728000000     2.756000000    -3.765000000
H     2.178000000     2.316000000    -4.593000000
C     4.066000000     2.573000000    -3.769000000
O     4.695000000     1.809000000    -4.734000000
C     4.853000000     2.923000000    -2.688000000
H     5.934000000     2.828000000    -2.758000000
C     4.284000000     3.612000000    -1.643000000
O     5.094000000     3.838000000    -0.546000000
C     4.786000000     4.623000000     0.561000000
C     4.808000000     4.233000000     1.867000000
H     5.142000000     3.254000000     2.200000000
C     4.338000000     5.927000000     0.240000000
H     4.418000000     6.203000000    -0.809000000
C     3.803000000     6.810000000     1.256000000
H     3.499000000     7.834000000     1.056000000
C     3.737000000     6.335000000     2.557000000
H     3.314000000     6.909000000     3.377000000
C     4.178000000     5.034000000     2.821000000
O     3.905000000     4.543000000     4.129000000
C     2.947000000     3.526000000     4.242000000
C     3.232000000     2.431000000     5.043000000
H     4.074000000     2.420000000     5.730000000
C     2.311000000     1.355000000     5.074000000
O     2.593000000     0.315000000     5.900000000
C     1.715000000    -0.684000000     6.330000000
C     1.636000000    -1.971000000     5.771000000
H     2.357000000    -2.207000000     4.993000000
C     0.853000000    -0.412000000     7.454000000
H     1.011000000     0.542000000     7.951000000
C    -0.147000000    -1.289000000     7.862000000
H    -0.882000000    -0.903000000     8.564000000
C    -0.145000000    -2.552000000     7.229000000
H    -1.008000000    -3.143000000     7.523000000
C     0.757000000    -2.927000000     6.302000000
O     0.697000000    -4.153000000     5.754000000
C     0.063000000    -4.376000000     4.578000000
C     0.352000000    -5.579000000     3.936000000
H     1.072000000    -6.318000000     4.277000000
C    -0.227000000    -5.853000000     2.704000000
O    -0.210000000    -7.088000000     2.029000000
C    -0.116000000    -7.092000000     0.658000000
C     1.040000000    -6.585000000     0.067000000
H     1.749000000    -6.099000000     0.731000000
C    -1.208000000    -7.404000000    -0.195000000
H    -2.119000000    -7.686000000     0.327000000
C    -1.076000000    -7.332000000    -1.554000000
H    -1.790000000    -7.745000000    -2.262000000
C     0.063000000    -6.752000000    -2.088000000
H     0.056000000    -6.582000000    -3.161000000
C     1.087000000    -6.300000000    -1.289000000
O     2.037000000    -5.442000000    -1.788000000
C     1.724000000    -4.448000000    -2.725000000
C     2.610000000    -4.098000000    -3.727000000
H     3.595000000    -4.558000000    -3.739000000
C     2.330000000    -3.000000000    -4.556000000
O     3.221000000    -2.740000000    -5.549000000
C     3.430000000    -1.440000000    -5.898000000
C     2.962000000    -1.072000000    -7.224000000
H     2.454000000    -1.807000000    -7.844000000
C     3.235000000     0.226000000    -7.719000000
H     2.953000000     0.525000000    -8.725000000
C     3.878000000     1.178000000    -6.859000000
H     4.169000000     2.195000000    -7.112000000
C     4.093000000     0.837000000    -5.528000000
C     3.873000000    -0.475000000    -5.009000000
H     4.145000000    -0.860000000    -4.029000000
O     4.409000000    -5.306000000    -0.483000000
H     4.474000000    -4.742000000     0.288000000
H     3.604000000    -5.024000000    -0.919000000
O     5.040000000    -0.612000000     2.784000000
H     4.774000000    -1.496000000     2.529000000
H     5.200000000    -0.161000000     1.955000000
O     6.765000000     1.610000000     4.710000000
H     7.429000000     0.923000000     4.663000000
H     6.085000000     1.328000000     4.099000000
O     2.991000000    -7.743000000     2.453000000
H     3.764000000    -7.993000000     2.958000000
H     3.034000000    -6.788000000     2.406000000
O     8.887000000    -1.571000000     2.939000000
H     8.828000000    -1.708000000     3.884000000
H     8.560000000    -0.682000000     2.805000000
O     9.336000000    -5.193000000     1.576000000
H     8.736000000    -4.499000000     1.303000000
H    10.033000000    -5.180000000     0.920000000
O     7.580000000    -3.137000000     0.231000000
H     8.235000000    -2.448000000     0.125000000
H     6.740000000    -2.688000000     0.132000000
O     4.402000000    -4.743000000     4.919000000
H     4.664000000    -3.824000000     4.969000000
H     5.228000000    -5.225000000     4.873000000
O     5.476000000    -5.820000000    -2.785000000
H     6.408000000    -5.612000000    -2.721000000
H     5.168000000    -5.820000000    -1.878000000
O     8.027000000    -4.537000000    -2.237000000
H     7.879000000    -4.069000000    -1.415000000
H     8.570000000    -3.944000000    -2.756000000
O     6.437000000    -3.433000000     3.081000000
H     5.873000000    -3.489000000     2.310000000
H     7.152000000    -2.856000000     2.813000000
O     5.479000000    -2.224000000     5.463000000
H     5.629000000    -1.333000000     5.146000000
H     5.885000000    -2.784000000     4.802000000
O     6.032000000    -7.482000000     0.882000000
H     6.756000000    -7.498000000     0.256000000
H     5.537000000    -6.695000000     0.656000000
O     8.117000000     0.162000000    -1.942000000
H     7.901000000    -0.683000000    -2.336000000
H     9.074000000     0.197000000    -1.960000000
O     6.207000000    -2.093000000    -2.783000000
H     5.775000000    -1.922000000    -1.946000000
H     6.025000000    -3.015000000    -2.963000000
O     7.063000000    -1.244000000    -5.754000000
H     6.449000000    -1.430000000    -5.043000000
H     6.519000000    -1.226000000    -6.541000000
O     3.323000000    -5.179000000     2.493000000
H     3.552000000    -4.394000000     1.996000000
H     3.511000000    -4.950000000     3.403000000
O     6.420000000     0.286000000     0.273000000
H     6.826000000     0.608000000    -0.532000000
H     5.791000000    -0.372000000    -0.022000000
O     8.295000000     0.884000000     2.141000000
H     8.500000000     1.781000000     1.879000000
H     7.591000000     0.617000000     1.550000000
