201
-1245.52177
C     0.330000000     1.078000000     5.453000000
H    -0.533000000     0.477000000     5.726000000
C     0.272000000     2.113000000     4.483000000
C     1.433000000     2.827000000     4.231000000
H     1.398000000     3.578000000     3.446000000
C    -0.934000000     2.216000000     3.481000000
O    -2.194000000     1.811000000     4.110000000
H    -0.688000000     1.556000000     2.636000000
O    -1.171000000     3.600000000     3.106000000
C    -1.678000000     3.985000000     1.866000000
C    -0.632000000     4.334000000     1.000000000
H     0.360000000     4.582000000     1.370000000
C    -0.864000000     4.337000000    -0.401000000
O     0.237000000     4.677000000    -1.257000000
C    -2.135000000     4.190000000    -0.863000000
C    -2.437000000     4.391000000    -2.394000000
H    -3.514000000     4.563000000    -2.437000000
C    -2.158000000     3.086000000    -3.149000000
C    -3.168000000     2.213000000    -3.321000000
H    -4.113000000     2.274000000    -2.788000000
H    -1.938000000     5.235000000    -2.873000000
C    -3.176000000     3.805000000    -0.022000000
H    -4.205000000     3.633000000    -0.326000000
C    -2.945000000     3.678000000     1.347000000
C    -4.032000000     3.209000000     2.356000000
H    -5.063000000     3.472000000     2.109000000
H    -3.901000000     3.694000000     3.326000000
C    -3.953000000     1.678000000     2.458000000
C    -4.723000000     0.852000000     1.560000000
H    -5.451000000     1.319000000     0.903000000
C    -2.989000000     1.075000000     3.283000000
C    -2.839000000    -0.279000000     3.304000000
H    -2.180000000    -0.724000000     4.046000000
C    -3.551000000    -1.044000000     2.464000000
O    -3.229000000    -2.398000000     2.570000000
C    -2.459000000    -2.910000000     1.496000000
C    -1.508000000    -3.926000000     2.087000000
C    -1.111000000    -5.083000000     1.411000000
H    -1.527000000    -5.340000000     0.440000000
C    -0.925000000    -3.739000000     3.328000000
H    -1.321000000    -2.886000000     3.874000000
O    -3.210000000    -3.520000000     0.404000000
H    -1.914000000    -2.004000000     1.193000000
C    -4.520000000    -0.484000000     1.546000000
C    -5.289000000    -1.430000000     0.661000000
H    -6.250000000    -1.008000000     0.360000000
H    -5.451000000    -2.373000000     1.188000000
C    -4.512000000    -1.791000000    -0.596000000
C    -4.728000000    -1.011000000    -1.737000000
H    -5.460000000    -0.208000000    -1.710000000
C    -3.569000000    -2.794000000    -0.681000000
C    -2.847000000    -2.957000000    -1.862000000
H    -2.098000000    -3.741000000    -1.938000000
C    -3.063000000    -2.139000000    -2.953000000
O    -2.223000000    -2.324000000    -3.954000000
C    -1.086000000    -1.387000000    -3.979000000
C     0.206000000    -2.186000000    -4.238000000
C     0.436000000    -3.379000000    -3.623000000
H    -0.347000000    -3.843000000    -3.028000000
C     1.279000000    -1.565000000    -4.938000000
H     1.065000000    -0.647000000    -5.480000000
O    -1.335000000    -0.408000000    -4.930000000
H    -1.024000000    -1.026000000    -2.942000000
C    -4.047000000    -1.195000000    -2.929000000
C    -4.119000000    -0.057000000    -3.982000000
H    -5.065000000     0.471000000    -3.846000000
H    -4.127000000    -0.410000000    -5.016000000
C    -3.013000000     1.044000000    -3.996000000
C    -1.706000000     0.761000000    -4.476000000
C    -0.681000000     1.638000000    -4.336000000
H     0.310000000     1.548000000    -4.774000000
C    -0.859000000     2.796000000    -3.648000000
O     0.204000000     3.614000000    -3.396000000
C     0.801000000     3.622000000    -2.047000000
H     0.563000000     2.658000000    -1.573000000
C     2.266000000     3.586000000    -2.016000000
C     2.989000000     3.897000000    -0.860000000
H     2.439000000     4.271000000    -0.001000000
C     2.981000000     3.021000000    -3.096000000
H     2.353000000     2.824000000    -3.961000000
C     4.389000000     3.096000000    -3.185000000
O     5.014000000     2.708000000    -4.322000000
C     5.088000000     3.396000000    -2.023000000
H     6.166000000     3.279000000    -2.095000000
C     4.436000000     3.763000000    -0.835000000
O     5.195000000     4.148000000     0.287000000
C     4.689000000     4.589000000     1.490000000
C     4.613000000     3.729000000     2.543000000
H     4.896000000     2.701000000     2.332000000
C     4.360000000     5.925000000     1.719000000
H     4.618000000     6.624000000     0.928000000
C     3.828000000     6.324000000     2.959000000
H     3.472000000     7.337000000     3.129000000
C     3.699000000     5.416000000     3.993000000
H     3.082000000     5.697000000     4.843000000
C     4.037000000     4.102000000     3.788000000
O     3.735000000     3.187000000     4.779000000
C     2.516000000     2.638000000     5.020000000
C     2.536000000     1.742000000     6.047000000
H     3.421000000     1.636000000     6.669000000
C     1.468000000     0.891000000     6.289000000
O     1.580000000    -0.072000000     7.214000000
C     0.884000000    -1.264000000     7.107000000
C     1.259000000    -2.265000000     6.220000000
H     2.195000000    -2.237000000     5.669000000
C    -0.200000000    -1.443000000     7.917000000
H    -0.545000000    -0.700000000     8.632000000
C    -0.881000000    -2.686000000     7.916000000
H    -1.571000000    -2.859000000     8.738000000
C    -0.612000000    -3.652000000     6.932000000
H    -1.175000000    -4.572000000     6.795000000
C     0.439000000    -3.373000000     6.069000000
O     0.787000000    -4.267000000     5.060000000
C     0.092000000    -4.555000000     3.898000000
C     0.502000000    -5.574000000     3.125000000
H     1.263000000    -6.286000000     3.436000000
C    -0.063000000    -5.820000000     1.856000000
O     0.388000000    -6.965000000     1.174000000
C     0.417000000    -6.954000000    -0.188000000
C     1.134000000    -6.004000000    -0.871000000
H     1.652000000    -5.228000000    -0.314000000
C    -0.209000000    -7.993000000    -0.820000000
H    -0.682000000    -8.793000000    -0.256000000
C    -0.185000000    -8.122000000    -2.210000000
H    -0.770000000    -8.886000000    -2.714000000
C     0.517000000    -7.129000000    -2.946000000
H     0.612000000    -7.076000000    -4.028000000
C     1.174000000    -6.076000000    -2.297000000
O     1.940000000    -5.242000000    -3.037000000
C     1.686000000    -3.996000000    -3.666000000
C     2.700000000    -3.367000000    -4.388000000
H     3.711000000    -3.766000000    -4.389000000
C     2.503000000    -2.137000000    -5.059000000
O     3.595000000    -1.643000000    -5.740000000
C     3.808000000    -0.322000000    -6.044000000
C     3.753000000     0.147000000    -7.358000000
H     3.473000000    -0.514000000    -8.173000000
C     3.894000000     1.536000000    -7.585000000
H     3.782000000     1.967000000    -8.577000000
C     4.403000000     2.330000000    -6.599000000
H     4.723000000     3.353000000    -6.775000000
C     4.484000000     1.842000000    -5.283000000
C     4.094000000     0.528000000    -5.008000000
H     4.118000000     0.185000000    -3.977000000
O     7.043000000    -4.910000000     3.339000000
H     6.600000000    -5.721000000     3.589000000
H     6.430000000    -4.476000000     2.745000000
O     3.915000000    -1.706000000     3.325000000
H     3.889000000    -2.449000000     2.722000000
H     4.276000000    -2.066000000     4.135000000
O     7.937000000    -1.843000000     2.621000000
H     8.032000000    -2.646000000     2.110000000
H     7.098000000    -1.942000000     3.070000000
O     5.215000000    -1.296000000    -2.034000000
H     4.838000000    -2.004000000    -1.512000000
H     5.205000000    -0.536000000    -1.451000000
O     5.852000000    -5.831000000     5.980000000
H     6.756000000    -5.715000000     5.688000000
H     5.346000000    -5.228000000     5.435000000
O     3.908000000    -4.649000000     4.543000000
H     3.005000000    -4.333000000     4.556000000
H     4.050000000    -4.932000000     3.640000000
O     6.094000000    -2.318000000     5.146000000
H     6.046000000    -2.141000000     6.085000000
H     6.898000000    -2.827000000     5.039000000
O     3.436000000    -8.164000000     3.266000000
H     3.705000000    -7.276000000     3.030000000
H     3.047000000    -8.074000000     4.136000000
O     5.812000000     0.549000000     4.936000000
H     6.524000000     0.583000000     4.297000000
H     5.241000000    -0.151000000     4.620000000
O     7.680000000     0.825000000    -0.260000000
H     6.767000000     0.912000000     0.011000000
H     8.097000000     0.342000000     0.453000000
O     2.544000000     0.859000000     1.848000000
H     2.088000000     0.107000000     1.470000000
H     2.925000000     0.525000000     2.660000000
O     6.814000000    -6.258000000    -3.798000000
H     6.299000000    -5.862000000    -3.094000000
H     6.337000000    -6.037000000    -4.597000000
O     4.853000000     0.111000000     0.417000000
H     4.847000000    -0.772000000     0.785000000
H     4.053000000     0.515000000     0.753000000
O     7.773000000     0.950000000     2.783000000
H     8.524000000     1.204000000     2.248000000
H     7.808000000    -0.006000000     2.806000000
O     6.263000000    -3.914000000     0.668000000
H     5.373000000    -3.654000000     0.433000000
H     6.593000000    -4.367000000    -0.108000000
O     7.053000000    -2.581000000    -4.115000000
H     7.234000000    -3.484000000    -3.852000000
H     6.661000000    -2.179000000    -3.340000000
O     4.126000000    -5.612000000     1.960000000
H     4.052000000    -6.085000000     1.131000000
H     3.833000000    -4.724000000     1.757000000
O     5.583000000    -4.866000000    -1.796000000
H     5.165000000    -4.006000000    -1.761000000
H     5.060000000    -5.411000000    -1.208000000
O     4.027000000    -6.882000000    -0.582000000
H     4.826000000    -7.389000000    -0.724000000
H     3.395000000    -7.255000000    -1.196000000
