201
-1239.78824
C     0.152000000     1.641000000     4.522000000
H    -0.795000000     1.106000000     4.511000000
C     0.217000000     2.821000000     3.694000000
C     1.428000000     3.564000000     3.676000000
H     1.413000000     4.436000000     3.027000000
C    -0.938000000     3.038000000     2.731000000
O    -2.156000000     2.528000000     3.304000000
H    -0.730000000     2.434000000     1.835000000
O    -1.059000000     4.466000000     2.390000000
C    -1.346000000     4.487000000     1.024000000
C    -0.282000000     4.702000000     0.155000000
H     0.732000000     4.829000000     0.525000000
C    -0.456000000     4.601000000    -1.211000000
O     0.710000000     4.621000000    -1.938000000
C    -1.687000000     4.369000000    -1.725000000
C    -1.841000000     4.167000000    -3.212000000
H    -2.828000000     4.509000000    -3.530000000
C    -1.556000000     2.734000000    -3.678000000
C    -2.644000000     1.861000000    -3.755000000
H    -3.650000000     2.236000000    -3.583000000
H    -1.135000000     4.821000000    -3.727000000
C    -2.813000000     4.236000000    -0.889000000
H    -3.767000000     3.920000000    -1.305000000
C    -2.602000000     4.188000000     0.519000000
C    -3.804000000     3.898000000     1.380000000
H    -4.650000000     4.290000000     0.810000000
H    -3.717000000     4.387000000     2.352000000
C    -3.871000000     2.341000000     1.638000000
C    -4.896000000     1.529000000     0.974000000
H    -5.573000000     2.051000000     0.303000000
C    -3.090000000     1.730000000     2.617000000
C    -3.312000000     0.432000000     2.930000000
H    -2.759000000    -0.032000000     3.743000000
C    -4.132000000    -0.397000000     2.181000000
O    -4.023000000    -1.714000000     2.484000000
C    -3.176000000    -2.491000000     1.540000000
C    -2.286000000    -3.474000000     2.289000000
C    -1.324000000    -4.199000000     1.587000000
H    -1.171000000    -3.992000000     0.531000000
C    -2.104000000    -3.508000000     3.683000000
H    -2.658000000    -2.842000000     4.339000000
O    -4.051000000    -3.176000000     0.611000000
H    -2.573000000    -1.785000000     0.951000000
C    -4.879000000     0.176000000     1.099000000
C    -5.529000000    -0.781000000     0.193000000
H    -6.336000000    -0.263000000    -0.331000000
H    -5.931000000    -1.616000000     0.771000000
C    -4.673000000    -1.390000000    -0.865000000
C    -4.460000000    -0.646000000    -2.041000000
H    -4.790000000     0.389000000    -2.099000000
C    -4.062000000    -2.615000000    -0.618000000
C    -3.256000000    -3.164000000    -1.595000000
H    -2.838000000    -4.158000000    -1.459000000
C    -3.022000000    -2.459000000    -2.768000000
O    -2.033000000    -2.915000000    -3.682000000
C    -0.795000000    -2.224000000    -3.729000000
C     0.397000000    -3.172000000    -3.716000000
C     0.219000000    -4.552000000    -3.604000000
H    -0.758000000    -4.936000000    -3.323000000
C     1.706000000    -2.695000000    -3.790000000
H     1.836000000    -1.621000000    -3.902000000
O    -0.833000000    -1.229000000    -4.795000000
H    -0.678000000    -1.627000000    -2.813000000
C    -3.639000000    -1.215000000    -3.005000000
C    -3.462000000    -0.525000000    -4.369000000
H    -4.456000000    -0.152000000    -4.623000000
H    -3.158000000    -1.279000000    -5.098000000
C    -2.349000000     0.517000000    -4.186000000
C    -1.059000000     0.110000000    -4.348000000
C    -0.057000000     1.015000000    -4.304000000
H     0.897000000     0.555000000    -4.552000000
C    -0.270000000     2.304000000    -3.956000000
O     0.795000000     3.127000000    -3.762000000
C     1.261000000     3.294000000    -2.395000000
H     0.746000000     2.518000000    -1.809000000
C     2.816000000     3.329000000    -2.317000000
C     3.402000000     4.126000000    -1.335000000
H     2.803000000     4.798000000    -0.726000000
C     3.571000000     2.343000000    -2.908000000
H     3.185000000     1.647000000    -3.649000000
C     4.956000000     2.280000000    -2.616000000
O     5.788000000     1.570000000    -3.491000000
C     5.573000000     3.241000000    -1.827000000
H     6.658000000     3.317000000    -1.810000000
C     4.705000000     3.991000000    -1.001000000
O     5.388000000     4.793000000    -0.150000000
C     4.841000000     5.244000000     1.036000000
C     4.528000000     4.295000000     2.072000000
H     4.654000000     3.225000000     1.926000000
C     4.712000000     6.604000000     1.328000000
H     4.964000000     7.375000000     0.604000000
C     4.243000000     7.096000000     2.538000000
H     4.089000000     8.172000000     2.558000000
C     3.757000000     6.187000000     3.467000000
H     3.232000000     6.568000000     4.339000000
C     4.040000000     4.788000000     3.301000000
O     3.718000000     3.810000000     4.291000000
C     2.527000000     3.133000000     4.485000000
C     2.330000000     2.115000000     5.420000000
H     3.147000000     1.777000000     6.053000000
C     1.152000000     1.341000000     5.427000000
O     1.060000000     0.235000000     6.293000000
C     0.010000000    -0.594000000     6.470000000
C     0.098000000    -1.933000000     6.089000000
H     0.944000000    -2.332000000     5.534000000
C    -1.101000000    -0.133000000     7.236000000
H    -1.126000000     0.910000000     7.540000000
C    -2.055000000    -1.082000000     7.632000000
H    -2.907000000    -0.726000000     8.206000000
C    -2.018000000    -2.369000000     7.127000000
H    -2.880000000    -3.027000000     7.211000000
C    -0.973000000    -2.812000000     6.358000000
O    -1.039000000    -4.007000000     5.714000000
C    -1.033000000    -4.128000000     4.323000000
C    -0.258000000    -5.023000000     3.595000000
H     0.438000000    -5.735000000     4.030000000
C    -0.386000000    -5.018000000     2.242000000
O     0.594000000    -5.700000000     1.594000000
C     0.230000000    -6.424000000     0.514000000
C     0.839000000    -6.210000000    -0.750000000
H     1.530000000    -5.373000000    -0.808000000
C    -0.760000000    -7.438000000     0.645000000
H    -1.086000000    -7.759000000     1.631000000
C    -1.233000000    -8.108000000    -0.482000000
H    -1.982000000    -8.889000000    -0.382000000
C    -0.554000000    -7.902000000    -1.734000000
H    -0.902000000    -8.406000000    -2.632000000
C     0.431000000    -6.922000000    -1.858000000
O     1.000000000    -6.723000000    -3.089000000
C     1.306000000    -5.443000000    -3.418000000
C     2.586000000    -4.867000000    -3.391000000
H     3.461000000    -5.439000000    -3.093000000
C     2.817000000    -3.524000000    -3.524000000
O     4.052000000    -2.922000000    -3.270000000
C     4.501000000    -1.864000000    -4.027000000
C     4.935000000    -2.122000000    -5.325000000
H     4.559000000    -3.030000000    -5.790000000
C     5.572000000    -1.141000000    -5.972000000
H     5.857000000    -1.286000000    -7.011000000
C     5.911000000     0.072000000    -5.374000000
H     6.479000000     0.745000000    -6.012000000
C     5.472000000     0.353000000    -4.090000000
C     4.716000000    -0.649000000    -3.411000000
H     4.371000000    -0.557000000    -2.384000000
O     3.814000000     0.858000000     1.323000000
H     3.799000000     0.577000000     2.238000000
H     2.997000000     0.520000000     0.956000000
O     3.740000000    -6.897000000     5.202000000
H     4.091000000    -7.167000000     6.051000000
H     4.387000000    -7.205000000     4.567000000
O     8.942000000    -3.547000000     0.738000000
H     9.409000000    -3.497000000     1.572000000
H     8.079000000    -3.178000000     0.925000000
O     2.086000000    -4.738000000     5.701000000
H     2.483000000    -4.106000000     5.102000000
H     2.649000000    -5.510000000     5.643000000
O     5.616000000    -4.388000000     4.082000000
H     5.684000000    -5.097000000     3.442000000
H     4.847000000    -3.889000000     3.805000000
O     3.958000000    -5.905000000     0.824000000
H     3.980000000    -5.127000000     1.380000000
H     3.215000000    -6.413000000     1.152000000
O     2.593000000    -8.068000000     2.019000000
H     1.675000000    -7.947000000     1.778000000
H     2.581000000    -8.778000000     2.660000000
O     2.903000000    -2.814000000     8.035000000
H     2.975000000    -3.640000000     7.556000000
H     3.657000000    -2.813000000     8.625000000
O     3.683000000    -1.402000000     5.695000000
H     3.466000000    -2.120000000     5.101000000
H     3.239000000    -1.627000000     6.514000000
O     0.397000000    -5.228000000     7.819000000
H     0.541000000    -5.056000000     6.889000000
H    -0.553000000    -5.183000000     7.928000000
O     6.462000000    -0.424000000     6.575000000
H     5.986000000    -1.193000000     6.260000000
H     5.876000000     0.311000000     6.396000000
O     6.233000000    -2.373000000     1.349000000
H     5.441000000    -2.660000000     1.804000000
H     5.922000000    -2.064000000     0.498000000
O     5.409000000    -7.632000000     3.109000000
H     4.582000000    -7.226000000     2.852000000
H     5.822000000    -7.879000000     2.281000000
O     6.397000000    -2.642000000    -1.362000000
H     5.760000000    -2.551000000    -2.070000000
H     6.186000000    -3.483000000    -0.957000000
O     5.831000000    -5.159000000    -0.715000000
H     5.054000000    -5.471000000    -0.250000000
H     5.949000000    -5.784000000    -1.430000000
O     7.856000000    -6.137000000     1.196000000
H     7.241000000    -5.466000000     0.901000000
H     7.514000000    -6.953000000     0.830000000
O     7.244000000    -4.357000000     6.539000000
H     7.958000000    -4.886000000     6.183000000
H     6.623000000    -4.274000000     5.816000000
O     4.263000000     0.283000000     3.789000000
H     4.122000000    -0.318000000     4.520000000
H     4.558000000     1.095000000     4.199000000
O     7.401000000    -2.305000000     4.004000000
H     7.309000000    -1.940000000     3.124000000
H     6.999000000    -3.172000000     3.947000000
