201
-1233.53659
C    -0.584000000     1.793000000     5.335000000
H    -1.563000000     1.370000000     5.542000000
C    -0.234000000     2.486000000     4.159000000
C     0.982000000     3.083000000     4.058000000
H     1.235000000     3.575000000     3.123000000
C    -1.197000000     2.458000000     2.938000000
O    -2.457000000     1.991000000     3.357000000
H    -0.744000000     1.800000000     2.182000000
O    -1.356000000     3.799000000     2.475000000
C    -1.507000000     4.026000000     1.122000000
C    -0.450000000     4.386000000     0.382000000
H     0.536000000     4.530000000     0.817000000
C    -0.485000000     4.367000000    -1.008000000
O     0.707000000     4.392000000    -1.668000000
C    -1.666000000     4.126000000    -1.714000000
C    -1.810000000     4.005000000    -3.238000000
H    -2.837000000     4.162000000    -3.574000000
C    -1.480000000     2.628000000    -3.674000000
C    -2.470000000     1.721000000    -3.897000000
H    -3.499000000     1.919000000    -3.609000000
H    -1.197000000     4.729000000    -3.779000000
C    -2.866000000     3.952000000    -0.928000000
H    -3.753000000     3.568000000    -1.424000000
C    -2.737000000     3.839000000     0.510000000
C    -3.954000000     3.392000000     1.257000000
H    -4.917000000     3.646000000     0.809000000
H    -3.986000000     4.003000000     2.161000000
C    -3.938000000     1.889000000     1.432000000
C    -4.768000000     1.062000000     0.613000000
H    -5.326000000     1.551000000    -0.182000000
C    -3.290000000     1.285000000     2.559000000
C    -3.422000000     0.021000000     2.877000000
H    -3.001000000    -0.424000000     3.775000000
C    -4.146000000    -0.777000000     2.019000000
O    -4.086000000    -2.146000000     2.210000000
C    -3.023000000    -2.746000000     1.443000000
C    -1.998000000    -3.585000000     2.316000000
C    -1.288000000    -4.586000000     1.675000000
H    -1.595000000    -4.983000000     0.711000000
C    -1.725000000    -3.256000000     3.683000000
H    -2.466000000    -2.566000000     4.080000000
O    -3.562000000    -3.564000000     0.422000000
H    -2.412000000    -1.966000000     0.964000000
C    -4.802000000    -0.303000000     0.862000000
C    -5.539000000    -1.217000000    -0.081000000
H    -6.323000000    -0.699000000    -0.636000000
H    -5.967000000    -2.043000000     0.491000000
C    -4.519000000    -1.784000000    -1.022000000
C    -4.353000000    -1.136000000    -2.278000000
H    -5.020000000    -0.285000000    -2.393000000
C    -3.671000000    -2.918000000    -0.822000000
C    -2.759000000    -3.320000000    -1.794000000
H    -2.235000000    -4.240000000    -1.546000000
C    -2.488000000    -2.503000000    -2.903000000
O    -1.490000000    -2.958000000    -3.747000000
C    -0.340000000    -2.073000000    -3.976000000
C     0.954000000    -2.886000000    -3.985000000
C     1.051000000    -4.080000000    -3.317000000
H     0.194000000    -4.423000000    -2.743000000
C     2.099000000    -2.229000000    -4.475000000
H     2.080000000    -1.299000000    -5.038000000
O    -0.547000000    -1.132000000    -5.081000000
H    -0.250000000    -1.495000000    -3.044000000
C    -3.380000000    -1.439000000    -3.192000000
C    -3.291000000    -0.571000000    -4.477000000
H    -4.181000000     0.029000000    -4.676000000
H    -3.097000000    -1.179000000    -5.363000000
C    -2.168000000     0.430000000    -4.348000000
C    -0.832000000     0.125000000    -4.712000000
C     0.212000000     1.078000000    -4.443000000
H     1.232000000     0.723000000    -4.565000000
C    -0.104000000     2.326000000    -3.937000000
O     0.905000000     3.152000000    -3.619000000
C     1.213000000     3.165000000    -2.209000000
H     0.737000000     2.394000000    -1.585000000
C     2.710000000     3.246000000    -2.019000000
C     3.240000000     3.738000000    -0.756000000
H     2.620000000     3.976000000     0.104000000
C     3.471000000     2.611000000    -2.911000000
H     3.040000000     2.112000000    -3.776000000
C     4.821000000     2.468000000    -2.629000000
O     5.609000000     1.910000000    -3.585000000
C     5.368000000     2.994000000    -1.456000000
H     6.450000000     2.932000000    -1.367000000
C     4.569000000     3.622000000    -0.543000000
O     5.117000000     4.030000000     0.695000000
C     4.453000000     4.705000000     1.740000000
C     3.924000000     3.988000000     2.814000000
H     3.947000000     2.923000000     2.598000000
C     4.432000000     6.102000000     1.787000000
H     4.821000000     6.629000000     0.919000000
C     3.866000000     6.749000000     2.890000000
H     3.792000000     7.833000000     2.892000000
C     3.500000000     5.980000000     3.999000000
H     3.273000000     6.597000000     4.864000000
C     3.419000000     4.613000000     3.992000000
O     3.046000000     3.819000000     5.070000000
C     1.836000000     3.107000000     5.179000000
C     1.508000000     2.323000000     6.282000000
H     2.237000000     2.125000000     7.064000000
C     0.362000000     1.664000000     6.297000000
O     0.158000000     0.782000000     7.365000000
C    -0.512000000    -0.423000000     7.247000000
C    -0.153000000    -1.419000000     6.328000000
H     0.727000000    -1.311000000     5.698000000
C    -1.595000000    -0.599000000     8.166000000
H    -1.797000000     0.243000000     8.823000000
C    -2.308000000    -1.810000000     8.148000000
H    -3.091000000    -2.110000000     8.839000000
C    -1.901000000    -2.771000000     7.216000000
H    -2.427000000    -3.722000000     7.241000000
C    -0.923000000    -2.559000000     6.333000000
O    -0.444000000    -3.693000000     5.680000000
C    -0.657000000    -3.898000000     4.367000000
C     0.189000000    -4.794000000     3.592000000
H     0.918000000    -5.422000000     4.099000000
C    -0.162000000    -5.160000000     2.292000000
O     0.590000000    -6.222000000     1.799000000
C     0.557000000    -6.628000000     0.480000000
C     1.564000000    -6.179000000    -0.317000000
H     2.380000000    -5.634000000     0.151000000
C    -0.491000000    -7.320000000    -0.118000000
H    -1.327000000    -7.618000000     0.509000000
C    -0.517000000    -7.562000000    -1.467000000
H    -1.363000000    -8.085000000    -1.906000000
C     0.475000000    -7.139000000    -2.293000000
H     0.509000000    -7.505000000    -3.316000000
C     1.513000000    -6.371000000    -1.708000000
O     2.541000000    -5.871000000    -2.519000000
C     2.291000000    -4.703000000    -3.197000000
C     3.388000000    -4.093000000    -3.793000000
H     4.355000000    -4.585000000    -3.727000000
C     3.271000000    -2.925000000    -4.451000000
O     4.430000000    -2.309000000    -5.026000000
C     4.542000000    -0.986000000    -5.341000000
C     4.116000000    -0.522000000    -6.605000000
H     3.746000000    -1.090000000    -7.455000000
C     4.163000000     0.895000000    -6.853000000
H     3.737000000     1.237000000    -7.792000000
C     4.707000000     1.722000000    -5.807000000
H     4.636000000     2.793000000    -5.979000000
C     5.191000000     1.149000000    -4.613000000
C     5.077000000    -0.181000000    -4.403000000
H     5.446000000    -0.546000000    -3.448000000
O     2.685000000     0.749000000     2.231000000
H     1.832000000     0.322000000     2.304000000
H     3.141000000     0.515000000     3.039000000
O     1.278000000    -6.209000000     7.032000000
H     1.578000000    -6.503000000     7.892000000
H     1.855000000    -6.655000000     6.412000000
O     5.139000000    -5.175000000     0.019000000
H     4.685000000    -4.690000000     0.708000000
H     4.552000000    -5.903000000    -0.188000000
O     2.502000000    -3.620000000     6.334000000
H     1.676000000    -4.081000000     6.476000000
H     2.651000000    -3.681000000     5.390000000
O     6.998000000    -5.583000000     1.963000000
H     6.758000000    -5.455000000     1.046000000
H     6.263000000    -5.218000000     2.456000000
O     3.924000000    -6.128000000     3.683000000
H     4.057000000    -5.219000000     3.416000000
H     4.109000000    -6.639000000     2.895000000
O     4.437000000    -5.212000000     7.389000000
H     4.142000000    -6.111000000     7.539000000
H     3.706000000    -4.793000000     6.935000000
O     3.822000000    -1.143000000     6.567000000
H     3.830000000    -0.994000000     7.512000000
H     3.396000000    -1.994000000     6.462000000
O     2.154000000    -7.798000000     4.656000000
H     2.711000000    -7.089000000     4.333000000
H     2.745000000    -8.546000000     4.742000000
O     5.387000000    -3.344000000     5.066000000
H     4.621000000    -3.153000000     4.525000000
H     5.025000000    -3.709000000     5.874000000
O     8.450000000    -3.777000000     4.037000000
H     7.688000000    -3.265000000     4.310000000
H     8.233000000    -4.077000000     3.154000000
O     6.260000000     1.853000000     3.477000000
H     7.087000000     1.373000000     3.423000000
H     5.607000000     1.182000000     3.675000000
O     5.164000000     0.202000000     0.338000000
H     5.461000000    -0.463000000     0.959000000
H     4.211000000     0.213000000     0.436000000
O     4.460000000    -8.199000000     1.235000000
H     3.909000000    -8.950000000     1.455000000
H     5.315000000    -8.411000000     1.612000000
O     6.554000000    -1.956000000    -0.820000000
H     6.578000000    -2.428000000     0.012000000
H     5.896000000    -1.273000000    -0.689000000
O     7.102000000    -6.943000000     4.460000000
H     8.027000000    -7.039000000     4.684000000
H     7.106000000    -6.546000000     3.589000000
O     7.111000000    -4.523000000     7.004000000
H     6.855000000    -4.444000000     6.085000000
H     6.378000000    -4.978000000     7.418000000
O     4.652000000    -0.279000000     4.019000000
H     5.569000000    -0.520000000     3.892000000
H     4.405000000    -0.704000000     4.841000000
O     6.143000000    -2.629000000     2.222000000
H     6.189000000    -2.563000000     3.175000000
H     5.266000000    -2.971000000     2.048000000
