201
-1238.57077
C    -1.536000000     0.854000000     4.536000000
H    -2.433000000     0.269000000     4.350000000
C    -1.334000000     2.068000000     3.839000000
C    -0.170000000     2.789000000     4.105000000
H     0.050000000     3.674000000     3.512000000
C    -2.184000000     2.434000000     2.636000000
O    -3.525000000     2.137000000     2.835000000
H    -1.817000000     1.926000000     1.732000000
O    -1.990000000     3.757000000     2.235000000
C    -1.826000000     3.985000000     0.880000000
C    -0.580000000     4.505000000     0.499000000
H     0.157000000     4.592000000     1.293000000
C    -0.345000000     4.665000000    -0.818000000
O     0.985000000     4.905000000    -1.169000000
C    -1.312000000     4.460000000    -1.751000000
C    -0.987000000     4.634000000    -3.221000000
H    -1.861000000     4.978000000    -3.779000000
C    -0.403000000     3.297000000    -3.718000000
C    -1.324000000     2.355000000    -4.191000000
H    -2.370000000     2.632000000    -4.294000000
H    -0.234000000     5.420000000    -3.310000000
C    -2.660000000     4.096000000    -1.446000000
H    -3.411000000     3.848000000    -2.191000000
C    -2.869000000     3.846000000    -0.044000000
C    -4.271000000     3.606000000     0.506000000
H    -4.940000000     3.985000000    -0.269000000
H    -4.589000000     4.145000000     1.401000000
C    -4.478000000     2.163000000     0.641000000
C    -4.849000000     1.364000000    -0.436000000
H    -4.926000000     1.862000000    -1.399000000
C    -4.094000000     1.472000000     1.795000000
C    -4.186000000     0.088000000     1.900000000
H    -3.933000000    -0.386000000     2.845000000
C    -4.543000000    -0.727000000     0.835000000
O    -4.441000000    -2.129000000     0.960000000
C    -3.410000000    -2.986000000     0.325000000
C    -3.035000000    -4.145000000     1.250000000
C    -2.189000000    -5.184000000     0.836000000
H    -1.975000000    -5.333000000    -0.219000000
C    -3.218000000    -4.060000000     2.635000000
H    -3.727000000    -3.193000000     3.048000000
O    -3.877000000    -3.423000000    -1.010000000
H    -2.498000000    -2.407000000     0.113000000
C    -4.939000000    -0.068000000    -0.381000000
C    -5.421000000    -0.839000000    -1.560000000
H    -5.924000000    -0.157000000    -2.248000000
H    -6.119000000    -1.566000000    -1.140000000
C    -4.234000000    -1.372000000    -2.339000000
C    -3.686000000    -0.560000000    -3.351000000
H    -4.138000000     0.419000000    -3.488000000
C    -3.562000000    -2.598000000    -2.001000000
C    -2.366000000    -2.866000000    -2.627000000
H    -1.746000000    -3.679000000    -2.260000000
C    -1.903000000    -2.054000000    -3.703000000
O    -0.615000000    -2.330000000    -4.196000000
C     0.572000000    -1.567000000    -3.799000000
C     1.794000000    -2.376000000    -3.451000000
C     1.647000000    -3.712000000    -2.952000000
H     0.692000000    -4.224000000    -2.863000000
C     3.084000000    -1.825000000    -3.482000000
H     3.306000000    -0.860000000    -3.932000000
O     0.856000000    -0.554000000    -4.705000000
H     0.236000000    -1.092000000    -2.866000000
C    -2.560000000    -0.891000000    -4.050000000
C    -1.951000000     0.034000000    -5.087000000
H    -2.750000000     0.621000000    -5.544000000
H    -1.511000000    -0.526000000    -5.915000000
C    -0.907000000     1.056000000    -4.499000000
C     0.453000000     0.712000000    -4.425000000
C     1.367000000     1.606000000    -3.902000000
H     2.414000000     1.371000000    -3.730000000
C     0.899000000     2.884000000    -3.549000000
O     1.839000000     3.735000000    -2.977000000
C     1.796000000     3.754000000    -1.563000000
H     1.312000000     2.847000000    -1.170000000
C     3.201000000     3.746000000    -1.036000000
C     3.440000000     4.416000000     0.183000000
H     2.605000000     4.868000000     0.711000000
C     4.252000000     3.032000000    -1.651000000
H     4.117000000     2.550000000    -2.616000000
C     5.519000000     2.977000000    -1.018000000
O     6.566000000     2.201000000    -1.610000000
C     5.733000000     3.620000000     0.190000000
H     6.681000000     3.671000000     0.720000000
C     4.745000000     4.412000000     0.692000000
O     4.988000000     5.074000000     1.953000000
C     4.046000000     5.197000000     2.910000000
C     3.578000000     4.044000000     3.508000000
H     3.984000000     3.163000000     3.018000000
C     3.615000000     6.429000000     3.360000000
H     4.016000000     7.379000000     3.018000000
C     2.741000000     6.446000000     4.431000000
H     2.331000000     7.410000000     4.723000000
C     2.119000000     5.302000000     4.964000000
H     1.340000000     5.354000000     5.720000000
C     2.566000000     4.074000000     4.438000000
O     2.109000000     2.881000000     5.053000000
C     0.823000000     2.346000000     5.026000000
C     0.613000000     1.119000000     5.633000000
H     1.315000000     0.849000000     6.417000000
C    -0.593000000     0.477000000     5.461000000
O    -0.756000000    -0.622000000     6.166000000
C    -1.804000000    -1.534000000     6.173000000
C    -1.746000000    -2.726000000     5.439000000
H    -0.865000000    -2.941000000     4.840000000
C    -2.897000000    -1.211000000     6.959000000
H    -2.807000000    -0.309000000     7.559000000
C    -4.044000000    -2.004000000     7.004000000
H    -4.894000000    -1.728000000     7.623000000
C    -3.971000000    -3.219000000     6.344000000
H    -4.831000000    -3.880000000     6.420000000
C    -2.885000000    -3.570000000     5.521000000
O    -2.786000000    -4.799000000     4.880000000
C    -2.710000000    -5.021000000     3.523000000
C    -1.870000000    -5.981000000     3.051000000
H    -1.357000000    -6.499000000     3.857000000
C    -1.610000000    -6.104000000     1.706000000
O    -0.900000000    -7.157000000     1.255000000
C    -0.156000000    -7.203000000     0.079000000
C     0.740000000    -6.180000000    -0.303000000
H     0.958000000    -5.376000000     0.395000000
C    -0.265000000    -8.362000000    -0.738000000
H    -0.891000000    -9.212000000    -0.477000000
C     0.489000000    -8.491000000    -1.907000000
H     0.233000000    -9.433000000    -2.386000000
C     1.363000000    -7.426000000    -2.282000000
H     2.122000000    -7.675000000    -3.019000000
C     1.554000000    -6.388000000    -1.434000000
O     2.601000000    -5.561000000    -1.710000000
C     2.688000000    -4.391000000    -2.404000000
C     3.975000000    -3.845000000    -2.615000000
H     4.829000000    -4.365000000    -2.188000000
C     4.197000000    -2.594000000    -3.230000000
O     5.484000000    -2.226000000    -3.433000000
C     5.937000000    -0.834000000    -3.531000000
C     6.447000000    -0.478000000    -4.733000000
H     6.458000000    -1.103000000    -5.621000000
C     6.992000000     0.759000000    -4.948000000
H     7.346000000     1.061000000    -5.930000000
C     6.961000000     1.678000000    -3.908000000
H     7.306000000     2.695000000    -4.073000000
C     6.428000000     1.361000000    -2.681000000
C     5.931000000     0.064000000    -2.464000000
H     5.741000000    -0.306000000    -1.460000000
O     3.804000000    -0.360000000     4.861000000
H     3.600000000    -1.213000000     5.244000000
H     4.042000000     0.187000000     5.610000000
O     0.165000000    -3.509000000     8.505000000
H     0.242000000    -4.004000000     7.690000000
H    -0.677000000    -3.780000000     8.871000000
O     5.050000000    -1.674000000     2.542000000
H     4.517000000    -1.115000000     3.107000000
H     4.524000000    -2.465000000     2.421000000
O     6.698000000    -3.116000000    -0.744000000
H     6.638000000    -3.321000000     0.189000000
H     7.062000000    -2.231000000    -0.772000000
O     3.684000000    -6.575000000     0.835000000
H     3.553000000    -6.288000000    -0.069000000
H     3.816000000    -5.765000000     1.327000000
O     3.943000000    -8.573000000     4.828000000
H     4.203000000    -9.311000000     4.276000000
H     3.111000000    -8.278000000     4.457000000
O     8.213000000    -2.576000000     3.630000000
H     8.646000000    -2.991000000     2.884000000
H     7.285000000    -2.782000000     3.513000000
O     1.810000000    -6.881000000     2.920000000
H     2.466000000    -6.948000000     2.226000000
H     1.705000000    -5.940000000     3.060000000
O     0.370000000    -7.489000000     6.245000000
H     0.501000000    -7.994000000     5.443000000
H     0.066000000    -8.132000000     6.886000000
O     4.931000000    -4.402000000     4.447000000
H     4.265000000    -4.334000000     3.762000000
H     5.456000000    -5.161000000     4.195000000
O     5.739000000    -4.564000000     7.145000000
H     5.517000000    -4.300000000     6.252000000
H     6.154000000    -3.790000000     7.527000000
O     0.402000000    -9.073000000     3.917000000
H     1.008000000    -9.749000000     3.614000000
H     0.520000000    -8.351000000     3.300000000
O     6.409000000    -4.065000000     1.779000000
H     5.481000000    -3.833000000     1.786000000
H     6.443000000    -4.931000000     2.185000000
O     6.626000000    -6.469000000     3.600000000
H     6.765000000    -7.410000000     3.704000000
H     7.508000000    -6.096000000     3.594000000
O     0.993000000    -4.583000000     5.899000000
H     1.198000000    -4.707000000     4.972000000
H     1.134000000    -5.444000000     6.293000000
O     6.998000000     0.185000000     1.916000000
H     7.330000000     0.039000000     1.030000000
H     6.420000000    -0.560000000     2.080000000
O     4.857000000    -9.114000000     0.897000000
H     4.434000000    -8.263000000     0.783000000
H     4.357000000    -9.539000000     1.594000000
O     6.700000000    -0.217000000     5.467000000
H     7.460000000    -0.296000000     4.890000000
H     5.948000000    -0.226000000     4.876000000
O     3.219000000    -2.701000000     5.804000000
H     3.754000000    -3.408000000     5.441000000
H     2.322000000    -3.030000000     5.754000000
