201
-1244.07358
C    -1.138000000     1.526000000     4.669000000
H    -2.147000000     1.141000000     4.543000000
C    -0.677000000     2.560000000     3.874000000
C     0.598000000     3.080000000     3.942000000
H     0.900000000     3.787000000     3.173000000
C    -1.573000000     2.930000000     2.684000000
O    -2.987000000     2.751000000     2.946000000
H    -1.263000000     2.256000000     1.872000000
O    -1.436000000     4.258000000     2.168000000
C    -1.237000000     4.431000000     0.816000000
C     0.033000000     4.409000000     0.269000000
H     0.840000000     4.510000000     0.991000000
C     0.309000000     4.337000000    -1.108000000
O     1.607000000     4.399000000    -1.547000000
C    -0.804000000     4.345000000    -1.957000000
C    -0.543000000     4.271000000    -3.492000000
H    -1.394000000     4.736000000    -3.994000000
C    -0.235000000     2.830000000    -3.863000000
C    -1.276000000     2.063000000    -4.370000000
H    -2.237000000     2.554000000    -4.502000000
H     0.203000000     5.010000000    -3.792000000
C    -2.094000000     4.297000000    -1.465000000
H    -2.939000000     4.149000000    -2.133000000
C    -2.342000000     4.257000000    -0.050000000
C    -3.777000000     4.210000000     0.440000000
H    -4.490000000     4.572000000    -0.303000000
H    -3.792000000     4.892000000     1.293000000
C    -4.089000000     2.773000000     0.756000000
C    -4.786000000     2.078000000    -0.191000000
H    -5.319000000     2.586000000    -0.991000000
C    -3.705000000     2.157000000     1.943000000
C    -3.994000000     0.845000000     2.166000000
H    -3.730000000     0.342000000     3.093000000
C    -4.460000000     0.161000000     1.143000000
O    -4.605000000    -1.164000000     1.344000000
C    -3.583000000    -2.014000000     0.761000000
C    -3.169000000    -3.102000000     1.758000000
C    -2.191000000    -4.052000000     1.335000000
H    -1.761000000    -3.955000000     0.342000000
C    -3.647000000    -3.140000000     3.074000000
H    -4.390000000    -2.448000000     3.461000000
O    -4.134000000    -2.634000000    -0.435000000
H    -2.649000000    -1.456000000     0.599000000
C    -4.855000000     0.711000000    -0.099000000
C    -5.398000000    -0.212000000    -1.215000000
H    -5.961000000     0.419000000    -1.905000000
H    -6.038000000    -0.997000000    -0.809000000
C    -4.314000000    -0.849000000    -2.072000000
C    -3.970000000    -0.292000000    -3.333000000
H    -4.474000000     0.591000000    -3.717000000
C    -3.712000000    -2.036000000    -1.572000000
C    -2.732000000    -2.627000000    -2.413000000
H    -2.238000000    -3.551000000    -2.123000000
C    -2.208000000    -2.021000000    -3.590000000
O    -1.095000000    -2.581000000    -4.206000000
C     0.118000000    -1.987000000    -3.876000000
C     1.162000000    -3.093000000    -3.658000000
C     0.784000000    -4.286000000    -3.059000000
H    -0.263000000    -4.530000000    -2.898000000
C     2.519000000    -2.786000000    -3.788000000
H     2.876000000    -1.795000000    -4.059000000
O     0.582000000    -1.103000000    -4.877000000
H    -0.017000000    -1.403000000    -2.954000000
C    -2.820000000    -0.846000000    -3.958000000
C    -2.234000000    -0.148000000    -5.171000000
H    -3.024000000     0.466000000    -5.609000000
H    -1.800000000    -0.834000000    -5.902000000
C    -1.030000000     0.734000000    -4.770000000
C     0.337000000     0.274000000    -4.731000000
C     1.406000000     1.057000000    -4.299000000
H     2.388000000     0.650000000    -4.524000000
C     1.095000000     2.327000000    -3.910000000
O     2.209000000     2.995000000    -3.354000000
C     2.244000000     3.139000000    -1.896000000
H     1.677000000     2.336000000    -1.402000000
C     3.607000000     2.923000000    -1.308000000
C     4.057000000     3.786000000    -0.352000000
H     3.327000000     4.493000000     0.032000000
C     4.433000000     1.833000000    -1.745000000
H     4.105000000     1.299000000    -2.633000000
C     5.711000000     1.732000000    -1.260000000
O     6.504000000     0.629000000    -1.520000000
C     6.184000000     2.619000000    -0.324000000
H     7.172000000     2.551000000     0.123000000
C     5.316000000     3.574000000     0.214000000
O     5.814000000     4.258000000     1.302000000
C     4.957000000     4.496000000     2.340000000
C     4.422000000     3.513000000     3.106000000
H     4.810000000     2.503000000     2.993000000
C     4.523000000     5.839000000     2.491000000
H     4.895000000     6.578000000     1.786000000
C     3.621000000     6.145000000     3.496000000
H     3.333000000     7.180000000     3.660000000
C     3.036000000     5.090000000     4.299000000
H     2.348000000     5.352000000     5.099000000
C     3.437000000     3.794000000     4.078000000
O     2.870000000     2.779000000     4.808000000
C     1.466000000     2.575000000     4.858000000
C     1.072000000     1.547000000     5.739000000
H     1.715000000     1.181000000     6.536000000
C    -0.245000000     1.045000000     5.668000000
O    -0.709000000     0.025000000     6.424000000
C    -2.005000000    -0.536000000     6.393000000
C    -2.140000000    -1.765000000     5.770000000
H    -1.277000000    -2.263000000     5.337000000
C    -3.151000000     0.115000000     6.850000000
H    -2.931000000     1.116000000     7.213000000
C    -4.422000000    -0.510000000     6.791000000
H    -5.304000000     0.044000000     7.104000000
C    -4.489000000    -1.865000000     6.356000000
H    -5.430000000    -2.373000000     6.551000000
C    -3.325000000    -2.451000000     5.842000000
O    -3.396000000    -3.750000000     5.259000000
C    -3.067000000    -3.992000000     3.912000000
C    -2.110000000    -4.916000000     3.592000000
H    -1.755000000    -5.633000000     4.327000000
C    -1.661000000    -4.945000000     2.263000000
O    -0.674000000    -5.878000000     1.889000000
C    -0.671000000    -6.381000000     0.631000000
C     0.375000000    -6.049000000    -0.247000000
H     1.097000000    -5.288000000     0.042000000
C    -1.518000000    -7.463000000     0.355000000
H    -2.131000000    -7.908000000     1.134000000
C    -1.400000000    -8.005000000    -0.937000000
H    -1.907000000    -8.939000000    -1.166000000
C    -0.475000000    -7.591000000    -1.867000000
H    -0.481000000    -7.920000000    -2.902000000
C     0.474000000    -6.660000000    -1.497000000
O     1.588000000    -6.448000000    -2.284000000
C     1.759000000    -5.161000000    -2.740000000
C     3.112000000    -4.933000000    -2.938000000
H     3.863000000    -5.703000000    -2.775000000
C     3.468000000    -3.662000000    -3.387000000
O     4.806000000    -3.409000000    -3.360000000
C     5.468000000    -2.166000000    -3.540000000
C     6.419000000    -2.099000000    -4.527000000
H     6.484000000    -2.923000000    -5.234000000
C     7.365000000    -1.094000000    -4.563000000
H     8.102000000    -1.043000000    -5.360000000
C     7.429000000    -0.087000000    -3.576000000
H     8.223000000     0.636000000    -3.405000000
C     6.476000000    -0.222000000    -2.550000000
C     5.467000000    -1.200000000    -2.521000000
H     4.830000000    -1.263000000    -1.643000000
O     3.772000000     0.164000000     1.553000000
H     3.792000000     0.347000000     2.492000000
H     2.891000000    -0.174000000     1.393000000
O     0.830000000    -5.486000000     8.074000000
H     1.005000000    -5.725000000     7.164000000
H     0.158000000    -6.106000000     8.359000000
O     6.414000000    -0.924000000     2.197000000
H     5.626000000    -0.618000000     1.749000000
H     6.321000000    -1.877000000     2.220000000
O     8.508000000    -2.301000000    -1.373000000
H     7.754000000    -2.789000000    -1.043000000
H     8.494000000    -2.449000000    -2.319000000
O     2.693000000    -8.017000000     7.322000000
H     2.581000000    -7.888000000     6.380000000
H     3.216000000    -7.267000000     7.606000000
O     3.492000000    -6.513000000     0.003000000
H     2.839000000    -6.563000000    -0.695000000
H     3.515000000    -5.586000000     0.243000000
O     4.388000000    -6.690000000     4.956000000
H     3.784000000    -6.804000000     4.222000000
H     4.457000000    -5.741000000     5.064000000
O     2.256000000    -6.436000000     2.862000000
H     2.088000000    -6.576000000     1.930000000
H     2.249000000    -5.484000000     2.966000000
O     3.901000000    -1.257000000     6.997000000
H     3.311000000    -1.600000000     6.325000000
H     4.231000000    -0.437000000     6.630000000
O     7.365000000    -4.971000000     0.189000000
H     6.861000000    -5.785000000     0.187000000
H     6.829000000    -4.359000000     0.693000000
O     4.326000000    -4.125000000     5.343000000
H     3.754000000    -3.843000000     4.629000000
H     5.108000000    -3.580000000     5.254000000
O     6.645000000    -3.020000000     4.756000000
H     7.154000000    -3.739000000     4.380000000
H     7.299000000    -2.450000000     5.161000000
O     1.164000000    -2.555000000     8.414000000
H     1.188000000    -3.512000000     8.446000000
H     1.725000000    -2.327000000     7.673000000
O     2.240000000    -9.177000000     3.929000000
H     2.155000000    -9.794000000     3.203000000
H     2.298000000    -8.319000000     3.509000000
O     5.732000000    -3.780000000     1.785000000
H     4.800000000    -3.609000000     1.649000000
H     5.774000000    -4.213000000     2.637000000
O     7.954000000    -5.143000000     4.062000000
H     8.550000000    -5.733000000     4.523000000
H     7.585000000    -5.675000000     3.358000000
O     0.962000000    -6.618000000     5.592000000
H     1.349000000    -6.393000000     4.745000000
H     0.041000000    -6.791000000     5.397000000
O     5.897000000    -8.038000000    -0.306000000
H     5.034000000    -7.644000000    -0.434000000
H     5.821000000    -8.518000000     0.519000000
O     1.713000000    -2.406000000     5.479000000
H     1.374000000    -3.225000000     5.842000000
H     1.701000000    -2.541000000     4.532000000
