201
-1275.83691
C    -0.896000000     0.449000000     4.475000000
H    -1.681000000    -0.163000000     4.038000000
C    -0.802000000     1.766000000     4.059000000
C     0.262000000     2.504000000     4.597000000
H     0.380000000     3.533000000     4.265000000
C    -1.751000000     2.330000000     2.959000000
O    -3.029000000     1.776000000     3.198000000
H    -1.364000000     1.850000000     2.048000000
O    -1.712000000     3.781000000     2.831000000
C    -1.512000000     4.221000000     1.562000000
C    -0.202000000     4.484000000     1.126000000
H     0.624000000     4.657000000     1.811000000
C     0.043000000     4.561000000    -0.206000000
O     1.321000000     4.617000000    -0.605000000
C    -1.025000000     4.669000000    -1.150000000
C    -0.663000000     4.896000000    -2.639000000
H    -1.485000000     5.398000000    -3.153000000
C    -0.283000000     3.621000000    -3.365000000
C    -1.252000000     2.852000000    -3.987000000
H    -2.296000000     3.155000000    -3.971000000
H     0.156000000     5.615000000    -2.701000000
C    -2.368000000     4.527000000    -0.723000000
H    -3.171000000     4.537000000    -1.455000000
C    -2.561000000     4.264000000     0.670000000
C    -3.906000000     3.733000000     1.182000000
H    -4.734000000     4.264000000     0.707000000
H    -4.005000000     3.992000000     2.238000000
C    -4.068000000     2.216000000     1.052000000
C    -4.659000000     1.679000000    -0.091000000
H    -5.059000000     2.341000000    -0.854000000
C    -3.709000000     1.326000000     2.120000000
C    -3.937000000    -0.026000000     2.025000000
H    -3.553000000    -0.691000000     2.794000000
C    -4.505000000    -0.570000000     0.887000000
O    -4.717000000    -1.935000000     0.860000000
C    -3.633000000    -2.562000000     0.166000000
C    -3.261000000    -3.819000000     0.885000000
C    -2.590000000    -4.885000000     0.236000000
H    -2.441000000    -4.806000000    -0.838000000
C    -3.432000000    -3.908000000     2.284000000
H    -3.858000000    -3.102000000     2.876000000
O    -4.066000000    -2.796000000    -1.164000000
H    -2.704000000    -1.974000000     0.172000000
C    -4.902000000     0.284000000    -0.130000000
C    -5.495000000    -0.357000000    -1.403000000
H    -6.190000000     0.249000000    -1.988000000
H    -6.119000000    -1.199000000    -1.098000000
C    -4.271000000    -0.685000000    -2.276000000
C    -3.720000000     0.173000000    -3.234000000
H    -4.108000000     1.174000000    -3.402000000
C    -3.686000000    -1.904000000    -2.139000000
C    -2.566000000    -2.279000000    -2.914000000
H    -2.060000000    -3.215000000    -2.692000000
C    -2.041000000    -1.430000000    -3.828000000
O    -0.888000000    -1.870000000    -4.470000000
C     0.295000000    -1.218000000    -4.025000000
C     1.424000000    -2.202000000    -3.937000000
C     1.265000000    -3.469000000    -3.344000000
H     0.252000000    -3.697000000    -3.021000000
C     2.742000000    -1.802000000    -4.169000000
H     2.911000000    -0.807000000    -4.573000000
O     0.650000000    -0.080000000    -4.908000000
H     0.124000000    -0.827000000    -3.012000000
C    -2.616000000    -0.178000000    -4.027000000
C    -2.087000000     0.747000000    -5.096000000
H    -2.906000000     1.400000000    -5.403000000
H    -1.583000000     0.247000000    -5.926000000
C    -0.961000000     1.629000000    -4.550000000
C     0.317000000     1.122000000    -4.463000000
C     1.330000000     1.823000000    -3.838000000
H     2.298000000     1.371000000    -3.638000000
C     1.044000000     3.101000000    -3.316000000
O     2.022000000     3.594000000    -2.553000000
C     1.932000000     3.391000000    -1.052000000
H     1.264000000     2.533000000    -0.887000000
C     3.275000000     3.213000000    -0.498000000
C     3.730000000     3.882000000     0.640000000
H     3.099000000     4.610000000     1.143000000
C     4.124000000     2.330000000    -1.123000000
H     3.836000000     1.766000000    -2.006000000
C     5.374000000     2.044000000    -0.582000000
O     6.256000000     1.099000000    -1.134000000
C     5.771000000     2.695000000     0.641000000
H     6.766000000     2.549000000     1.055000000
C     4.969000000     3.597000000     1.206000000
O     5.391000000     4.183000000     2.403000000
C     4.459000000     4.360000000     3.429000000
C     3.875000000     3.277000000     4.105000000
H     3.979000000     2.255000000     3.750000000
C     4.405000000     5.695000000     3.934000000
H     4.943000000     6.507000000     3.453000000
C     3.580000000     6.002000000     4.989000000
H     3.569000000     7.030000000     5.343000000
C     2.966000000     4.942000000     5.614000000
H     2.394000000     5.101000000     6.524000000
C     3.078000000     3.603000000     5.230000000
O     2.226000000     2.684000000     5.973000000
C     1.165000000     1.960000000     5.493000000
C     0.987000000     0.653000000     5.973000000
H     1.698000000     0.213000000     6.668000000
C    -0.034000000    -0.079000000     5.404000000
O    -0.188000000    -1.448000000     5.696000000
C    -1.387000000    -2.087000000     5.745000000
C    -1.510000000    -3.367000000     5.187000000
H    -0.699000000    -3.810000000     4.615000000
C    -2.398000000    -1.605000000     6.518000000
H    -2.232000000    -0.655000000     7.019000000
C    -3.606000000    -2.274000000     6.679000000
H    -4.410000000    -1.794000000     7.230000000
C    -3.780000000    -3.475000000     5.971000000
H    -4.714000000    -4.029000000     6.021000000
C    -2.798000000    -3.999000000     5.149000000
O    -2.928000000    -5.160000000     4.342000000
C    -2.899000000    -5.009000000     2.968000000
C    -2.287000000    -6.067000000     2.206000000
H    -1.861000000    -6.920000000     2.727000000
C    -2.141000000    -6.019000000     0.855000000
O    -1.540000000    -7.091000000     0.195000000
C    -0.844000000    -6.970000000    -0.992000000
C     0.402000000    -6.300000000    -1.022000000
H     0.813000000    -5.886000000    -0.105000000
C    -1.405000000    -7.561000000    -2.145000000
H    -2.375000000    -8.039000000    -2.035000000
C    -0.702000000    -7.496000000    -3.359000000
H    -1.142000000    -7.997000000    -4.218000000
C     0.443000000    -6.716000000    -3.407000000
H     1.069000000    -6.652000000    -4.292000000
C     1.014000000    -6.178000000    -2.269000000
O     2.228000000    -5.508000000    -2.359000000
C     2.370000000    -4.301000000    -2.993000000
C     3.612000000    -3.884000000    -3.349000000
H     4.499000000    -4.504000000    -3.248000000
C     3.804000000    -2.634000000    -3.935000000
O     5.125000000    -2.401000000    -4.244000000
C     5.673000000    -1.119000000    -3.917000000
C     6.196000000    -0.351000000    -4.984000000
H     5.967000000    -0.631000000    -6.009000000
C     6.477000000     1.049000000    -4.736000000
H     6.712000000     1.680000000    -5.590000000
C     6.476000000     1.522000000    -3.430000000
H     6.812000000     2.515000000    -3.144000000
C     6.115000000     0.670000000    -2.407000000
C     5.612000000    -0.608000000    -2.651000000
H     5.008000000    -1.096000000    -1.890000000
O     4.676000000    -0.908000000     6.362000000
H     4.553000000    -0.306000000     5.628000000
H     4.064000000    -1.624000000     6.189000000
O     5.701000000    -1.699000000     1.663000000
H     5.330000000    -1.249000000     2.422000000
H     4.945000000    -2.079000000     1.216000000
O     8.857000000    -5.482000000     4.090000000
H     8.032000000    -5.086000000     3.808000000
H     8.886000000    -6.324000000     3.636000000
O     3.288000000    -8.124000000    -3.018000000
H     3.683000000    -8.800000000    -2.467000000
H     3.443000000    -7.307000000    -2.544000000
O     4.344000000    -6.320000000     0.329000000
H     3.642000000    -5.701000000     0.127000000
H     5.146000000    -5.800000000     0.270000000
O     1.025000000    -5.534000000     3.407000000
H     1.427000000    -6.222000000     2.877000000
H     1.514000000    -4.742000000     3.184000000
O     6.199000000    -4.111000000     3.459000000
H     6.312000000    -3.462000000     2.765000000
H     5.305000000    -3.973000000     3.772000000
O     3.887000000    -5.590000000     3.893000000
H     3.435000000    -4.911000000     3.390000000
H     4.683000000    -5.768000000     3.392000000
O     1.128000000    -4.564000000     6.676000000
H     1.464000000    -5.189000000     6.034000000
H     0.954000000    -5.091000000     7.455000000
O     5.139000000    -6.212000000     6.578000000
H     5.880000000    -6.751000000     6.301000000
H     4.723000000    -5.938000000     5.761000000
O     2.162000000    -7.302000000     1.862000000
H     2.308000000    -8.241000000     1.977000000
H     3.028000000    -6.949000000     1.655000000
O     6.300000000    -4.237000000    -0.002000000
H     5.456000000    -3.799000000     0.111000000
H     6.948000000    -3.544000000     0.117000000
O     9.180000000    -2.376000000     1.916000000
H     8.468000000    -2.000000000     1.398000000
H     9.309000000    -3.249000000     1.545000000
O    -0.733000000    -7.101000000     4.854000000
H    -1.440000000    -6.475000000     5.009000000
H    -0.015000000    -6.571000000     4.508000000
O     7.688000000    -1.033000000    -0.074000000
H     7.007000000    -1.282000000     0.552000000
H     7.445000000    -0.151000000    -0.354000000
O     5.813000000    -0.281000000     3.938000000
H     6.376000000     0.474000000     3.766000000
H     6.217000000    -0.715000000     4.689000000
O     7.193000000    -2.767000000     5.948000000
H     7.019000000    -3.120000000     5.075000000
H     6.372000000    -2.890000000     6.424000000
O     2.986000000    -2.771000000     5.389000000
H     2.442000000    -3.315000000     5.959000000
H     2.717000000    -3.010000000     4.502000000
O     7.550000000    -6.371000000    -1.570000000
H     6.975000000    -5.983000000    -0.910000000
H     7.946000000    -5.621000000    -2.013000000
