201
-1243.91123
C     0.640000000     1.189000000     4.262000000
H    -0.376000000     0.820000000     4.155000000
C     0.899000000     2.479000000     3.796000000
C     2.184000000     3.045000000     4.034000000
H     2.413000000     4.028000000     3.631000000
C    -0.132000000     3.201000000     2.935000000
O    -1.468000000     3.352000000     3.522000000
H    -0.251000000     2.581000000     2.035000000
O     0.372000000     4.427000000     2.500000000
C     0.252000000     4.665000000     1.090000000
C     1.412000000     4.365000000     0.395000000
H     2.320000000     4.067000000     0.914000000
C     1.411000000     4.321000000    -1.016000000
O     2.550000000     3.823000000    -1.723000000
C     0.221000000     4.577000000    -1.673000000
C     0.137000000     4.588000000    -3.183000000
H    -0.600000000     5.314000000    -3.532000000
C    -0.127000000     3.179000000    -3.671000000
C    -1.455000000     2.784000000    -3.726000000
H    -2.292000000     3.397000000    -3.399000000
H     1.098000000     4.873000000    -3.616000000
C    -0.977000000     4.783000000    -0.966000000
H    -1.887000000     5.135000000    -1.445000000
C    -0.979000000     4.788000000     0.443000000
C    -2.248000000     5.021000000     1.175000000
H    -2.979000000     5.543000000     0.555000000
H    -2.121000000     5.663000000     2.049000000
C    -2.888000000     3.665000000     1.622000000
C    -3.799000000     3.039000000     0.768000000
H    -3.983000000     3.577000000    -0.159000000
C    -2.530000000     2.917000000     2.746000000
C    -3.133000000     1.738000000     3.105000000
H    -2.876000000     1.159000000     3.988000000
C    -4.202000000     1.255000000     2.310000000
O    -4.627000000    -0.019000000     2.467000000
C    -4.014000000    -1.024000000     1.595000000
C    -3.598000000    -2.337000000     2.442000000
C    -3.681000000    -3.563000000     1.809000000
H    -3.877000000    -3.553000000     0.740000000
C    -3.200000000    -2.207000000     3.716000000
H    -3.216000000    -1.267000000     4.261000000
O    -4.928000000    -1.393000000     0.553000000
H    -3.126000000    -0.682000000     1.042000000
C    -4.528000000     1.957000000     1.189000000
C    -5.584000000     1.501000000     0.107000000
H    -5.978000000     2.369000000    -0.425000000
H    -6.407000000     1.066000000     0.679000000
C    -4.917000000     0.561000000    -0.901000000
C    -4.533000000     1.137000000    -2.103000000
H    -4.660000000     2.210000000    -2.212000000
C    -4.750000000    -0.800000000    -0.686000000
C    -4.095000000    -1.513000000    -1.651000000
H    -3.909000000    -2.556000000    -1.408000000
C    -3.658000000    -0.990000000    -2.889000000
O    -2.881000000    -1.748000000    -3.721000000
C    -1.461000000    -1.535000000    -3.699000000
C    -0.628000000    -2.840000000    -3.648000000
C    -0.935000000    -3.879000000    -2.773000000
H    -1.907000000    -3.892000000    -2.286000000
C     0.538000000    -2.963000000    -4.439000000
H     0.919000000    -2.202000000    -5.115000000
O    -1.071000000    -0.773000000    -4.860000000
H    -1.282000000    -0.909000000    -2.813000000
C    -3.851000000     0.380000000    -3.128000000
C    -3.262000000     1.165000000    -4.367000000
H    -3.885000000     2.044000000    -4.543000000
H    -3.404000000     0.470000000    -5.198000000
C    -1.806000000     1.526000000    -4.217000000
C    -0.794000000     0.580000000    -4.553000000
C     0.581000000     0.952000000    -4.334000000
H     1.396000000     0.242000000    -4.448000000
C     0.853000000     2.201000000    -3.863000000
O     2.147000000     2.389000000    -3.612000000
C     2.553000000     2.474000000    -2.218000000
H     1.846000000     1.958000000    -1.551000000
C     3.822000000     1.684000000    -1.977000000
C     4.551000000     1.863000000    -0.802000000
H     4.078000000     2.449000000    -0.019000000
C     4.239000000     0.765000000    -2.863000000
H     3.769000000     0.630000000    -3.834000000
C     5.298000000    -0.040000000    -2.569000000
O     5.859000000    -0.884000000    -3.493000000
C     6.107000000     0.171000000    -1.413000000
H     7.027000000    -0.406000000    -1.362000000
C     5.733000000     1.176000000    -0.509000000
O     6.392000000     1.308000000     0.708000000
C     6.351000000     2.410000000     1.574000000
C     5.338000000     2.300000000     2.512000000
H     4.769000000     1.375000000     2.474000000
C     7.196000000     3.473000000     1.622000000
H     8.033000000     3.602000000     0.941000000
C     7.017000000     4.374000000     2.700000000
H     7.714000000     5.205000000     2.769000000
C     6.051000000     4.199000000     3.707000000
H     6.115000000     4.786000000     4.620000000
C     5.228000000     3.094000000     3.661000000
O     4.373000000     2.852000000     4.739000000
C     3.134000000     2.336000000     4.649000000
C     2.839000000     0.999000000     5.033000000
H     3.584000000     0.353000000     5.490000000
C     1.569000000     0.428000000     4.889000000
O     1.282000000    -0.686000000     5.665000000
C     0.033000000    -0.947000000     6.241000000
C    -0.711000000    -1.986000000     5.725000000
H    -0.415000000    -2.459000000     4.792000000
C    -0.319000000    -0.338000000     7.425000000
H     0.397000000     0.385000000     7.808000000
C    -1.518000000    -0.760000000     8.099000000
H    -1.792000000    -0.279000000     9.035000000
C    -2.274000000    -1.834000000     7.556000000
H    -3.227000000    -2.166000000     7.960000000
C    -1.833000000    -2.370000000     6.362000000
O    -2.695000000    -3.319000000     5.793000000
C    -2.915000000    -3.390000000     4.458000000
C    -2.985000000    -4.652000000     3.803000000
H    -2.790000000    -5.565000000     4.359000000
C    -3.288000000    -4.697000000     2.460000000
O    -3.499000000    -5.899000000     1.865000000
C    -3.164000000    -6.184000000     0.561000000
C    -1.896000000    -5.805000000     0.018000000
H    -1.230000000    -5.150000000     0.574000000
C    -4.045000000    -6.922000000    -0.133000000
H    -5.059000000    -7.098000000     0.215000000
C    -3.663000000    -7.396000000    -1.408000000
H    -4.472000000    -7.772000000    -2.029000000
C    -2.406000000    -7.092000000    -1.953000000
H    -2.276000000    -7.411000000    -2.983000000
C    -1.500000000    -6.275000000    -1.275000000
O    -0.326000000    -6.020000000    -1.827000000
C    -0.079000000    -4.967000000    -2.660000000
C     1.106000000    -5.107000000    -3.401000000
H     1.826000000    -5.915000000    -3.305000000
C     1.450000000    -4.068000000    -4.234000000
O     2.606000000    -4.090000000    -4.923000000
C     3.489000000    -3.059000000    -5.142000000
C     3.829000000    -2.786000000    -6.495000000
H     3.238000000    -3.207000000    -7.305000000
C     4.650000000    -1.720000000    -6.839000000
H     4.988000000    -1.530000000    -7.855000000
C     5.203000000    -0.973000000    -5.731000000
H     6.036000000    -0.281000000    -5.828000000
C     4.989000000    -1.438000000    -4.423000000
C     4.133000000    -2.450000000    -4.066000000
H     3.980000000    -2.774000000    -3.040000000
O     4.738000000    -3.410000000     1.143000000
H     5.206000000    -3.138000000     0.354000000
H     4.036000000    -3.976000000     0.822000000
O     3.216000000    -9.359000000     3.247000000
H     2.369000000    -8.916000000     3.304000000
H     3.809000000    -8.810000000     3.759000000
O     1.900000000    -7.474000000    -0.076000000
H     1.858000000    -6.553000000     0.182000000
H     1.387000000    -7.520000000    -0.883000000
O     3.711000000    -8.360000000    -2.330000000
H     2.907000000    -8.486000000    -2.833000000
H     4.169000000    -9.198000000    -2.397000000
O     2.914000000    -7.719000000     5.478000000
H     3.110000000    -7.227000000     4.680000000
H     2.439000000    -7.098000000     6.031000000
O     4.027000000    -9.343000000     0.506000000
H     3.480000000    -8.767000000    -0.028000000
H     3.758000000    -9.162000000     1.406000000
O     5.663000000    -6.502000000     1.360000000
H     5.574000000    -6.180000000     0.463000000
H     6.327000000    -7.189000000     1.304000000
O     3.404000000    -6.249000000     2.923000000
H     4.114000000    -6.464000000     2.318000000
H     2.668000000    -6.017000000     2.356000000
O     0.151000000    -6.021000000     4.998000000
H    -0.101000000    -6.499000000     4.209000000
H     0.688000000    -5.296000000     4.678000000
O     5.706000000    -6.617000000     4.756000000
H     5.703000000    -5.893000000     4.130000000
H     5.559000000    -6.200000000     5.605000000
O     0.603000000    -9.650000000     1.118000000
H     0.843000000   -10.414000000     0.593000000
H     1.019000000    -8.912000000     0.671000000
O     4.729000000    -6.017000000    -1.124000000
H     3.938000000    -5.606000000    -0.776000000
H     4.408000000    -6.767000000    -1.625000000
O    -0.141000000    -7.098000000     2.413000000
H     0.281000000    -6.413000000     1.894000000
H    -0.104000000    -7.877000000     1.858000000
O     6.194000000    -3.807000000     3.298000000
H     5.542000000    -3.885000000     2.601000000
H     7.036000000    -3.858000000     2.845000000
O     2.767000000    -4.235000000     6.665000000
H     2.806000000    -4.064000000     5.724000000
H     3.647000000    -4.029000000     6.982000000
O     4.077000000    -2.357000000     4.753000000
H     4.683000000    -2.880000000     4.229000000
H     3.909000000    -1.579000000     4.221000000
O     6.831000000    -3.833000000    -1.770000000
H     7.052000000    -3.577000000    -2.666000000
H     6.106000000    -4.449000000    -1.869000000
O     1.592000000    -3.954000000     3.937000000
H     2.324000000    -3.354000000     3.794000000
H     1.367000000    -4.271000000     3.062000000
O     3.617000000    -0.929000000     2.544000000
H     3.931000000    -1.642000000     1.987000000
H     2.853000000    -0.584000000     2.083000000
