201
-1229.83118
C    -1.308000000     1.450000000     5.260000000
H    -2.304000000     1.053000000     5.080000000
C    -0.764000000     2.354000000     4.335000000
C     0.588000000     2.706000000     4.496000000
H     1.084000000     3.415000000     3.838000000
C    -1.569000000     2.792000000     3.091000000
O    -3.019000000     2.627000000     3.168000000
H    -1.204000000     2.112000000     2.307000000
O    -1.351000000     4.112000000     2.706000000
C    -1.046000000     4.470000000     1.405000000
C     0.301000000     4.498000000     1.033000000
H     1.111000000     4.447000000     1.755000000
C     0.628000000     4.673000000    -0.276000000
O     1.963000000     4.514000000    -0.687000000
C    -0.332000000     4.745000000    -1.275000000
C     0.012000000     4.713000000    -2.756000000
H    -0.643000000     5.302000000    -3.402000000
C     0.213000000     3.345000000    -3.350000000
C    -0.851000000     2.747000000    -4.045000000
H    -1.799000000     3.271000000    -4.130000000
H     0.945000000     5.260000000    -2.907000000
C    -1.663000000     4.739000000    -0.926000000
H    -2.375000000     4.870000000    -1.736000000
C    -2.000000000     4.561000000     0.375000000
C    -3.488000000     4.402000000     0.803000000
H    -4.113000000     4.964000000     0.106000000
H    -3.614000000     4.805000000     1.810000000
C    -3.913000000     2.890000000     0.908000000
C    -4.507000000     2.321000000    -0.226000000
H    -4.503000000     3.009000000    -1.068000000
C    -3.632000000     2.120000000     2.068000000
C    -4.157000000     0.858000000     2.066000000
H    -4.160000000     0.221000000     2.947000000
C    -4.592000000     0.259000000     0.879000000
O    -4.619000000    -1.103000000     0.883000000
C    -3.683000000    -1.924000000     0.194000000
C    -2.974000000    -3.019000000     0.993000000
C    -2.387000000    -4.150000000     0.286000000
H    -2.562000000    -4.260000000    -0.781000000
C    -2.791000000    -2.935000000     2.359000000
H    -3.128000000    -2.080000000     2.941000000
O    -4.241000000    -2.351000000    -1.086000000
H    -2.889000000    -1.216000000    -0.087000000
C    -4.757000000     0.989000000    -0.306000000
C    -5.315000000     0.316000000    -1.531000000
H    -5.936000000     1.071000000    -2.017000000
H    -6.010000000    -0.464000000    -1.213000000
C    -4.261000000    -0.309000000    -2.406000000
C    -3.626000000     0.449000000    -3.417000000
H    -3.798000000     1.521000000    -3.377000000
C    -3.944000000    -1.665000000    -2.224000000
C    -2.922000000    -2.183000000    -3.073000000
H    -2.562000000    -3.191000000    -2.887000000
C    -2.363000000    -1.425000000    -4.112000000
O    -1.326000000    -1.948000000    -4.792000000
C    -0.001000000    -1.605000000    -4.327000000
C     0.908000000    -2.884000000    -4.234000000
C     0.396000000    -4.127000000    -4.254000000
H    -0.681000000    -4.243000000    -4.168000000
C     2.300000000    -2.708000000    -3.986000000
H     2.635000000    -1.704000000    -3.741000000
O     0.644000000    -0.485000000    -5.022000000
H    -0.144000000    -1.288000000    -3.284000000
C    -2.704000000    -0.054000000    -4.358000000
C    -1.935000000     0.814000000    -5.346000000
H    -2.557000000     1.570000000    -5.830000000
H    -1.473000000     0.229000000    -6.144000000
C    -0.733000000     1.504000000    -4.680000000
C     0.527000000     0.818000000    -4.514000000
C     1.594000000     1.460000000    -3.870000000
H     2.545000000     0.934000000    -3.865000000
C     1.426000000     2.691000000    -3.256000000
O     2.569000000     3.201000000    -2.592000000
C     2.424000000     3.225000000    -1.144000000
H     1.761000000     2.432000000    -0.768000000
C     3.769000000     2.711000000    -0.521000000
C     4.354000000     3.287000000     0.645000000
H     3.913000000     4.135000000     1.164000000
C     4.492000000     1.657000000    -1.067000000
H     4.072000000     1.102000000    -1.902000000
C     5.653000000     1.061000000    -0.449000000
O     6.257000000    -0.093000000    -0.928000000
C     6.088000000     1.589000000     0.804000000
H     6.887000000     1.093000000     1.350000000
C     5.372000000     2.677000000     1.314000000
O     5.911000000     3.362000000     2.403000000
C     5.131000000     3.736000000     3.476000000
C     4.279000000     2.863000000     4.168000000
H     4.186000000     1.814000000     3.898000000
C     5.260000000     5.027000000     3.898000000
H     5.875000000     5.759000000     3.381000000
C     4.598000000     5.537000000     5.042000000
H     4.715000000     6.538000000     5.449000000
C     3.663000000     4.735000000     5.706000000
H     3.003000000     5.123000000     6.478000000
C     3.458000000     3.390000000     5.204000000
O     2.618000000     2.488000000     5.833000000
C     1.279000000     2.265000000     5.681000000
C     0.647000000     1.347000000     6.543000000
H     1.187000000     0.877000000     7.361000000
C    -0.630000000     0.950000000     6.311000000
O    -1.288000000     0.105000000     7.106000000
C    -2.085000000    -0.903000000     6.587000000
C    -1.408000000    -1.713000000     5.650000000
H    -0.400000000    -1.486000000     5.313000000
C    -3.410000000    -1.138000000     6.974000000
H    -3.907000000    -0.446000000     7.649000000
C    -4.040000000    -2.260000000     6.573000000
H    -5.040000000    -2.492000000     6.930000000
C    -3.367000000    -3.141000000     5.702000000
H    -3.839000000    -4.087000000     5.448000000
C    -2.070000000    -2.898000000     5.238000000
O    -1.567000000    -3.757000000     4.318000000
C    -2.031000000    -3.860000000     3.023000000
C    -1.457000000    -4.924000000     2.336000000
H    -0.787000000    -5.568000000     2.901000000
C    -1.594000000    -5.096000000     0.999000000
O    -1.053000000    -6.207000000     0.338000000
C    -1.272000000    -6.403000000    -1.006000000
C    -0.190000000    -6.246000000    -1.843000000
H     0.757000000    -5.839000000    -1.499000000
C    -2.483000000    -6.923000000    -1.491000000
H    -3.196000000    -7.194000000    -0.716000000
C    -2.692000000    -7.191000000    -2.851000000
H    -3.643000000    -7.627000000    -3.145000000
C    -1.639000000    -6.957000000    -3.693000000
H    -1.786000000    -7.024000000    -4.768000000
C    -0.408000000    -6.620000000    -3.177000000
O     0.675000000    -6.520000000    -3.995000000
C     1.197000000    -5.241000000    -4.066000000
C     2.558000000    -5.117000000    -3.926000000
H     3.083000000    -5.968000000    -3.500000000
C     3.128000000    -3.834000000    -3.866000000
O     4.450000000    -3.768000000    -3.445000000
C     5.195000000    -2.575000000    -3.428000000
C     5.274000000    -1.803000000    -4.581000000
H     5.016000000    -2.207000000    -5.557000000
C     5.911000000    -0.504000000    -4.568000000
H     6.214000000    -0.044000000    -5.505000000
C     6.228000000     0.066000000    -3.362000000
H     6.771000000     1.005000000    -3.290000000
C     6.014000000    -0.642000000    -2.155000000
C     5.505000000    -1.978000000    -2.187000000
H     5.274000000    -2.507000000    -1.266000000
O     4.713000000    -0.668000000     2.617000000
H     4.165000000    -0.959000000     3.346000000
H     4.292000000    -1.033000000     1.840000000
O     4.695000000    -7.328000000     2.791000000
H     5.549000000    -7.759000000     2.781000000
H     4.133000000    -7.921000000     3.291000000
O     4.506000000    -7.665000000    -1.751000000
H     4.393000000    -8.291000000    -1.035000000
H     4.120000000    -6.853000000    -1.422000000
O     3.475000000    -5.183000000    -0.912000000
H     3.498000000    -4.547000000    -0.197000000
H     3.400000000    -4.651000000    -1.704000000
O     0.797000000    -7.750000000     4.961000000
H     1.022000000    -7.039000000     4.361000000
H    -0.029000000    -8.097000000     4.622000000
O     1.922000000    -5.918000000     3.235000000
H     2.315000000    -6.414000000     2.517000000
H     2.059000000    -5.002000000     2.997000000
O     6.091000000    -2.687000000     4.835000000
H     6.549000000    -2.319000000     4.079000000
H     5.580000000    -3.412000000     4.476000000
O     4.455000000    -4.693000000     3.979000000
H     3.800000000    -4.140000000     3.552000000
H     4.641000000    -5.381000000     3.340000000
O     2.459000000    -3.131000000     8.047000000
H     2.091000000    -3.792000000     7.461000000
H     1.978000000    -3.243000000     8.867000000
O     4.330000000    -6.661000000     6.083000000
H     4.095000000    -7.467000000     5.624000000
H     4.091000000    -5.961000000     5.476000000
O     7.547000000    -6.926000000     0.767000000
H     7.591000000    -7.876000000     0.655000000
H     8.112000000    -6.577000000     0.078000000
O     0.479000000    -8.490000000     0.976000000
H    -0.165000000    -7.882000000     0.612000000
H     0.119000000    -8.738000000     1.828000000
O     6.182000000    -3.843000000     0.680000000
H     6.399000000    -4.684000000     1.083000000
H     5.228000000    -3.852000000     0.605000000
O     1.509000000    -4.922000000     6.330000000
H     1.299000000    -4.935000000     5.396000000
H     1.806000000    -5.812000000     6.521000000
O     7.162000000    -1.710000000     2.517000000
H     6.360000000    -1.224000000     2.329000000
H     7.665000000    -1.666000000     1.704000000
O     5.428000000    -0.664000000     6.782000000
H     5.006000000    -0.220000000     6.046000000
H     5.575000000    -1.557000000     6.472000000
O     2.966000000    -1.576000000     4.683000000
H     3.480000000    -2.033000000     5.349000000
H     2.654000000    -2.271000000     4.103000000
O     8.604000000    -0.620000000     4.716000000
H     9.530000000    -0.664000000     4.482000000
H     8.154000000    -1.067000000     3.999000000
O     7.964000000    -3.612000000    -1.379000000
H     7.324000000    -3.464000000    -0.684000000
H     7.812000000    -2.901000000    -2.001000000
