201
-1246.53248
C     0.393000000     0.490000000     4.365000000
H    -0.642000000     0.307000000     4.089000000
C     1.004000000     1.688000000     3.902000000
C     2.385000000     1.915000000     4.237000000
H     2.828000000     2.832000000     3.857000000
C     0.280000000     2.657000000     2.998000000
O    -1.043000000     3.001000000     3.510000000
H     0.212000000     2.081000000     2.063000000
O     0.955000000     3.927000000     2.874000000
C     1.126000000     4.378000000     1.546000000
C     2.213000000     3.985000000     0.826000000
H     2.981000000     3.444000000     1.374000000
C     2.266000000     4.101000000    -0.599000000
O     3.331000000     3.606000000    -1.234000000
C     1.227000000     4.785000000    -1.285000000
C     1.159000000     4.755000000    -2.766000000
H     0.364000000     5.492000000    -2.902000000
C     0.756000000     3.415000000    -3.294000000
C    -0.546000000     3.315000000    -3.657000000
H    -1.201000000     4.170000000    -3.518000000
H     2.153000000     4.979000000    -3.159000000
C     0.097000000     5.144000000    -0.519000000
H    -0.830000000     5.496000000    -0.964000000
C     0.030000000     4.957000000     0.824000000
C    -1.285000000     5.237000000     1.515000000
H    -1.802000000     6.036000000     0.980000000
H    -1.139000000     5.682000000     2.502000000
C    -2.245000000     4.082000000     1.610000000
C    -3.279000000     3.860000000     0.692000000
H    -3.279000000     4.478000000    -0.202000000
C    -2.067000000     3.109000000     2.660000000
C    -2.958000000     2.059000000     2.779000000
H    -2.828000000     1.452000000     3.671000000
C    -3.842000000     1.762000000     1.822000000
O    -4.578000000     0.556000000     1.946000000
C    -4.231000000    -0.487000000     1.019000000
C    -4.258000000    -1.857000000     1.694000000
C    -4.416000000    -3.018000000     0.902000000
H    -4.483000000    -2.820000000    -0.165000000
C    -4.040000000    -1.920000000     3.123000000
H    -4.018000000    -1.020000000     3.732000000
O    -5.109000000    -0.560000000    -0.170000000
H    -3.203000000    -0.474000000     0.629000000
C    -4.032000000     2.667000000     0.755000000
C    -5.100000000     2.421000000    -0.299000000
H    -5.382000000     3.257000000    -0.941000000
H    -5.989000000     2.027000000     0.197000000
C    -4.586000000     1.507000000    -1.401000000
C    -3.831000000     2.081000000    -2.460000000
H    -3.855000000     3.167000000    -2.474000000
C    -4.683000000     0.125000000    -1.332000000
C    -4.078000000    -0.643000000    -2.311000000
H    -4.216000000    -1.720000000    -2.251000000
C    -3.300000000    -0.045000000    -3.299000000
O    -2.625000000    -0.906000000    -4.168000000
C    -1.214000000    -0.902000000    -4.051000000
C    -0.684000000    -2.348000000    -4.031000000
C    -1.409000000    -3.302000000    -3.312000000
H    -2.375000000    -3.026000000    -2.896000000
C     0.615000000    -2.579000000    -4.638000000
H     1.159000000    -1.790000000    -5.151000000
O    -0.618000000    -0.083000000    -5.044000000
H    -0.973000000    -0.495000000    -3.058000000
C    -3.166000000     1.312000000    -3.431000000
C    -2.522000000     2.084000000    -4.509000000
H    -3.052000000     3.037000000    -4.560000000
H    -2.751000000     1.546000000    -5.431000000
C    -1.040000000     2.218000000    -4.281000000
C    -0.216000000     1.125000000    -4.529000000
C     1.144000000     1.124000000    -4.078000000
H     1.680000000     0.189000000    -4.222000000
C     1.609000000     2.321000000    -3.475000000
O     2.869000000     2.357000000    -3.018000000
C     3.154000000     2.258000000    -1.640000000
H     2.292000000     1.849000000    -1.092000000
C     4.343000000     1.315000000    -1.291000000
C     5.163000000     1.567000000    -0.202000000
H     5.017000000     2.458000000     0.404000000
C     4.562000000     0.166000000    -2.087000000
H     3.917000000    -0.044000000    -2.936000000
C     5.526000000    -0.806000000    -1.680000000
O     5.632000000    -1.991000000    -2.356000000
C     6.301000000    -0.509000000    -0.575000000
H     7.024000000    -1.257000000    -0.258000000
C     6.122000000     0.646000000     0.165000000
O     6.930000000     0.803000000     1.292000000
C     6.518000000     1.521000000     2.375000000
C     5.680000000     0.946000000     3.322000000
H     5.389000000    -0.090000000     3.171000000
C     6.953000000     2.803000000     2.506000000
H     7.810000000     3.094000000     1.904000000
C     6.440000000     3.593000000     3.517000000
H     6.890000000     4.578000000     3.606000000
C     5.573000000     3.053000000     4.407000000
H     5.173000000     3.670000000     5.207000000
C     5.211000000     1.697000000     4.372000000
O     4.367000000     1.057000000     5.283000000
C     3.041000000     0.938000000     4.989000000
C     2.370000000    -0.164000000     5.548000000
H     2.891000000    -0.844000000     6.216000000
C     1.047000000    -0.337000000     5.281000000
O     0.458000000    -1.455000000     5.856000000
C    -0.858000000    -1.535000000     6.209000000
C    -1.640000000    -2.419000000     5.545000000
H    -1.110000000    -3.029000000     4.818000000
C    -1.421000000    -0.693000000     7.178000000
H    -0.725000000     0.051000000     7.558000000
C    -2.802000000    -0.663000000     7.387000000
H    -3.274000000     0.034000000     8.076000000
C    -3.562000000    -1.573000000     6.779000000
H    -4.637000000    -1.502000000     6.921000000
C    -3.022000000    -2.473000000     5.828000000
O    -3.821000000    -3.303000000     5.094000000
C    -3.873000000    -3.162000000     3.743000000
C    -4.175000000    -4.316000000     3.015000000
H    -4.120000000    -5.301000000     3.471000000
C    -4.381000000    -4.216000000     1.619000000
O    -4.511000000    -5.473000000     0.993000000
C    -4.167000000    -5.835000000    -0.241000000
C    -2.996000000    -5.320000000    -0.849000000
H    -2.310000000    -4.591000000    -0.426000000
C    -4.928000000    -6.819000000    -0.860000000
H    -5.914000000    -7.172000000    -0.569000000
C    -4.590000000    -7.224000000    -2.170000000
H    -5.058000000    -8.075000000    -2.659000000
C    -3.361000000    -6.770000000    -2.685000000
H    -2.913000000    -7.151000000    -3.599000000
C    -2.605000000    -5.798000000    -2.041000000
O    -1.280000000    -5.634000000    -2.476000000
C    -0.822000000    -4.567000000    -3.208000000
C     0.458000000    -4.861000000    -3.810000000
H     0.809000000    -5.890000000    -3.822000000
C     1.138000000    -3.858000000    -4.533000000
O     2.351000000    -4.315000000    -5.021000000
C     3.422000000    -3.511000000    -4.885000000
C     4.032000000    -2.883000000    -6.078000000
H     3.795000000    -3.116000000    -7.113000000
C     5.100000000    -1.980000000    -5.943000000
H     5.607000000    -1.572000000    -6.814000000
C     5.611000000    -1.721000000    -4.719000000
H     6.454000000    -1.036000000    -4.677000000
C     5.062000000    -2.320000000    -3.580000000
C     3.966000000    -3.183000000    -3.645000000
H     3.446000000    -3.598000000    -2.786000000
O    -0.577000000    -8.755000000    -3.767000000
H    -0.682000000    -8.332000000    -4.619000000
H     0.347000000    -8.632000000    -3.550000000
O     3.230000000    -0.784000000     1.042000000
H     2.409000000    -0.294000000     1.090000000
H     3.166000000    -1.277000000     0.223000000
O     3.234000000    -7.429000000     3.500000000
H     2.851000000    -6.761000000     4.070000000
H     3.296000000    -7.005000000     2.643000000
O    -0.298000000    -7.520000000    -0.730000000
H     0.029000000    -6.621000000    -0.685000000
H    -1.036000000    -7.475000000    -1.338000000
O     2.371000000    -8.862000000    -0.554000000
H     2.137000000    -9.088000000    -1.454000000
H     1.627000000    -8.350000000    -0.235000000
O    -3.516000000    -8.185000000     2.725000000
H    -2.900000000    -8.795000000     2.320000000
H    -3.078000000    -7.335000000     2.677000000
O     5.670000000    -3.061000000     2.266000000
H     6.231000000    -3.798000000     2.025000000
H     5.040000000    -2.995000000     1.549000000
O     4.398000000    -9.603000000     0.976000000
H     3.906000000   -10.409000000     1.131000000
H     3.949000000    -9.186000000     0.241000000
O     2.145000000    -8.513000000    -3.421000000
H     2.755000000    -8.685000000    -4.137000000
H     2.540000000    -7.786000000    -2.939000000
O     4.206000000    -3.799000000     0.066000000
H     4.846000000    -4.318000000    -0.422000000
H     3.406000000    -4.325000000     0.046000000
O     1.466000000    -5.128000000     4.066000000
H     0.864000000    -5.037000000     3.327000000
H     2.159000000    -4.492000000     3.890000000
O     3.344000000    -6.520000000     0.991000000
H     3.021000000    -7.248000000     0.461000000
H     2.715000000    -5.815000000     0.838000000
O    -1.771000000    -9.706000000     0.725000000
H    -2.555000000   -10.222000000     0.913000000
H    -1.749000000    -9.644000000    -0.230000000
O     3.505000000    -6.547000000    -1.987000000
H     2.862000000    -5.953000000    -1.599000000
H     4.311000000    -6.377000000    -1.500000000
O    -1.136000000    -6.936000000     1.982000000
H    -0.430000000    -6.305000000     1.842000000
H    -1.158000000    -7.454000000     1.177000000
O     4.210000000    -4.053000000     5.036000000
H     5.076000000    -3.727000000     5.282000000
H     3.848000000    -3.370000000     4.471000000
O     6.085000000    -5.167000000    -1.299000000
H     5.865000000    -5.162000000    -2.230000000
H     6.479000000    -6.027000000    -1.150000000
O     2.803000000    -2.806000000     3.095000000
H     2.123000000    -2.703000000     2.430000000
H     3.600000000    -2.485000000     2.675000000
O    -0.300000000    -8.861000000     4.326000000
H     0.044000000    -8.660000000     5.196000000
H    -0.050000000    -8.109000000     3.790000000
