201
-1257.25135
C    -2.105000000    -3.299000000    -3.184000000
H    -2.215000000    -2.424000000    -3.819000000
C    -2.609000000    -3.156000000    -1.890000000
C    -2.496000000    -4.203000000    -0.946000000
H    -2.634000000    -3.972000000     0.107000000
C    -3.293000000    -1.842000000    -1.520000000
O    -3.764000000    -1.094000000    -2.604000000
H    -2.551000000    -1.265000000    -0.948000000
O    -4.443000000    -2.083000000    -0.619000000
C    -4.368000000    -1.284000000     0.454000000
C    -3.859000000    -1.771000000     1.683000000
H    -3.615000000    -2.825000000     1.789000000
C    -3.638000000    -0.896000000     2.733000000
O    -2.888000000    -1.411000000     3.734000000
C    -4.043000000     0.410000000     2.690000000
C    -3.721000000     1.238000000     3.958000000
H    -4.452000000     2.047000000     4.016000000
C    -2.318000000     1.840000000     3.980000000
C    -2.164000000     2.944000000     3.174000000
H    -3.074000000     3.385000000     2.774000000
H    -3.866000000     0.684000000     4.887000000
C    -4.734000000     0.884000000     1.552000000
H    -5.163000000     1.881000000     1.487000000
C    -4.807000000     0.030000000     0.402000000
C    -5.457000000     0.673000000    -0.804000000
H    -6.091000000     1.517000000    -0.525000000
H    -6.078000000    -0.072000000    -1.307000000
C    -4.337000000     1.093000000    -1.740000000
C    -4.034000000     2.468000000    -1.646000000
H    -4.614000000     3.122000000    -1.001000000
C    -3.698000000     0.267000000    -2.628000000
C    -2.770000000     0.762000000    -3.530000000
H    -2.416000000     0.033000000    -4.254000000
C    -2.493000000     2.111000000    -3.476000000
O    -1.492000000     2.483000000    -4.318000000
C    -0.210000000     2.620000000    -3.549000000
C     1.031000000     2.128000000    -4.229000000
C     2.251000000     2.827000000    -4.233000000
H     2.404000000     3.734000000    -3.654000000
C     1.086000000     0.884000000    -4.793000000
H     0.185000000     0.279000000    -4.741000000
O    -0.021000000     4.009000000    -3.199000000
H    -0.386000000     2.095000000    -2.598000000
C    -3.037000000     2.985000000    -2.508000000
C    -2.648000000     4.455000000    -2.378000000
H    -3.484000000     4.970000000    -1.901000000
H    -2.510000000     4.930000000    -3.352000000
C    -1.509000000     4.585000000    -1.325000000
C    -1.726000000     4.884000000     0.032000000
H    -2.756000000     4.975000000     0.369000000
C    -0.238000000     4.310000000    -1.827000000
C     0.860000000     4.301000000    -0.957000000
H     1.827000000     3.995000000    -1.349000000
C     0.722000000     4.512000000     0.418000000
O     1.794000000     4.415000000     1.234000000
C     1.946000000     3.176000000     1.838000000
C     3.353000000     2.633000000     1.715000000
C     4.224000000     3.103000000     0.782000000
H     3.894000000     3.883000000     0.100000000
C     3.761000000     1.563000000     2.516000000
H     3.090000000     1.198000000     3.289000000
O     1.504000000     3.265000000     3.184000000
H     1.270000000     2.486000000     1.312000000
C    -0.571000000     4.849000000     0.945000000
C    -0.766000000     4.935000000     2.439000000
H    -1.748000000     5.396000000     2.566000000
H    -0.014000000     5.562000000     2.922000000
C    -0.918000000     3.542000000     3.065000000
C     0.255000000     2.871000000     3.561000000
C     0.112000000     1.583000000     4.108000000
H     0.942000000     0.921000000     4.339000000
C    -1.190000000     1.120000000     4.392000000
O    -1.314000000    -0.140000000     4.781000000
C    -1.526000000    -1.162000000     3.788000000
H    -1.159000000    -0.807000000     2.813000000
C    -0.729000000    -2.429000000     4.086000000
C    -1.296000000    -3.710000000     4.015000000
H    -2.317000000    -3.757000000     3.648000000
C     0.581000000    -2.336000000     4.585000000
H     1.021000000    -1.357000000     4.757000000
C     1.318000000    -3.527000000     4.749000000
O     2.686000000    -3.370000000     5.061000000
C     0.670000000    -4.738000000     4.709000000
H     1.252000000    -5.556000000     5.125000000
C    -0.606000000    -4.862000000     4.387000000
O    -1.282000000    -6.081000000     4.224000000
C    -2.072000000    -6.464000000     3.129000000
C    -1.649000000    -6.119000000     1.823000000
H    -0.801000000    -5.445000000     1.738000000
C    -3.232000000    -7.280000000     3.333000000
H    -3.633000000    -7.618000000     4.285000000
C    -3.831000000    -7.799000000     2.193000000
H    -4.718000000    -8.421000000     2.275000000
C    -3.365000000    -7.534000000     0.912000000
H    -4.028000000    -7.880000000     0.123000000
C    -2.256000000    -6.689000000     0.696000000
O    -1.698000000    -6.496000000    -0.528000000
C    -1.918000000    -5.412000000    -1.386000000
C    -1.449000000    -5.540000000    -2.670000000
H    -0.969000000    -6.455000000    -3.008000000
C    -1.418000000    -4.456000000    -3.546000000
O    -0.786000000    -4.593000000    -4.769000000
C    -0.455000000    -3.502000000    -5.522000000
C     0.692000000    -2.783000000    -5.256000000
H     1.362000000    -2.984000000    -4.424000000
C    -1.348000000    -2.984000000    -6.452000000
H    -2.309000000    -3.455000000    -6.641000000
C    -0.988000000    -1.987000000    -7.369000000
H    -1.696000000    -1.623000000    -8.110000000
C     0.192000000    -1.269000000    -7.232000000
H     0.361000000    -0.466000000    -7.944000000
C     1.018000000    -1.694000000    -6.144000000
O     2.156000000    -0.978000000    -5.853000000
C     2.195000000     0.307000000    -5.314000000
C     3.361000000     0.988000000    -5.392000000
H     4.267000000     0.526000000    -5.775000000
C     3.414000000     2.228000000    -4.748000000
O     4.574000000     2.906000000    -4.835000000
C     5.268000000     3.495000000    -3.775000000
C     5.320000000     2.904000000    -2.477000000
H     4.789000000     1.977000000    -2.275000000
C     6.025000000     4.654000000    -4.104000000
H     5.939000000     5.118000000    -5.084000000
C     6.869000000     5.231000000    -3.224000000
H     7.538000000     6.046000000    -3.486000000
C     6.976000000     4.635000000    -1.964000000
H     7.639000000     5.011000000    -1.188000000
C     6.187000000     3.510000000    -1.608000000
O     6.426000000     2.923000000    -0.400000000
C     5.481000000     2.479000000     0.572000000
C     5.839000000     1.352000000     1.346000000
H     6.780000000     0.812000000     1.274000000
C     4.995000000     0.905000000     2.358000000
O     5.422000000    -0.083000000     3.244000000
C     4.744000000    -0.529000000     4.296000000
C     4.695000000     0.276000000     5.465000000
H     5.243000000     1.215000000     5.467000000
C     3.910000000    -0.256000000     6.482000000
H     3.762000000     0.353000000     7.370000000
C     3.233000000    -1.488000000     6.403000000
H     2.493000000    -1.867000000     7.103000000
C     3.341000000    -2.206000000     5.239000000
C     4.117000000    -1.763000000     4.207000000
H     4.219000000    -2.207000000     3.220000000
O     4.323000000    -2.137000000    -0.616000000
H     4.038000000    -2.009000000    -1.521000000
H     3.509000000    -2.224000000    -0.119000000
O     4.294000000    -8.023000000     4.574000000
H     3.377000000    -8.037000000     4.299000000
H     4.699000000    -7.354000000     4.023000000
O     4.919000000    -5.419000000     2.457000000
H     5.072000000    -4.496000000     2.253000000
H     4.005000000    -5.569000000     2.216000000
O     2.303000000   -10.053000000    -3.823000000
H     1.808000000   -10.849000000    -3.628000000
H     2.176000000    -9.498000000    -3.053000000
O     3.670000000    -2.719000000    -3.217000000
H     3.259000000    -3.584000000    -3.228000000
H     4.610000000    -2.901000000    -3.224000000
O     6.862000000    -0.818000000    -0.853000000
H     6.044000000    -1.126000000    -0.464000000
H     7.199000000    -1.575000000    -1.333000000
O     1.661000000    -8.493000000    -1.542000000
H     2.234000000    -8.858000000    -0.867000000
H     1.606000000    -7.561000000    -1.330000000
O     2.021000000    -7.724000000     2.837000000
H     2.065000000    -8.322000000     2.091000000
H     2.071000000    -6.851000000     2.448000000
O     6.801000000    -5.353000000     4.958000000
H     7.029000000    -5.975000000     4.268000000
H     5.986000000    -4.951000000     4.658000000
O    -0.234000000    -8.705000000     4.748000000
H     0.375000000    -8.625000000     4.014000000
H    -0.547000000    -7.813000000     4.897000000
O     3.158000000    -9.362000000     0.748000000
H     3.151000000   -10.161000000     1.275000000
H     4.073000000    -9.080000000     0.753000000
O     1.731000000    -7.112000000    -4.567000000
H     1.811000000    -7.980000000    -4.171000000
H     0.996000000    -7.192000000    -5.175000000
O     4.520000000    -7.176000000     0.011000000
H     4.791000000    -6.701000000     0.796000000
H     3.569000000    -7.252000000     0.093000000
O     6.314000000    -4.370000000    -2.418000000
H     6.122000000    -4.214000000    -1.494000000
H     5.872000000    -5.195000000    -2.619000000
O     6.798000000    -7.635000000     3.064000000
H     6.381000000    -8.287000000     2.502000000
H     7.075000000    -6.943000000     2.463000000
O     7.880000000    -5.479000000     1.638000000
H     7.281000000    -4.733000000     1.621000000
H     8.691000000    -5.127000000     2.005000000
O     5.456000000    -8.906000000    -1.710000000
H     5.100000000    -8.159000000    -1.229000000
H     6.335000000    -8.628000000    -1.967000000
O     6.037000000    -3.075000000     1.560000000
H     6.736000000    -2.422000000     1.528000000
H     5.556000000    -2.952000000     0.742000000
O     3.406000000    -5.825000000    -2.828000000
H     2.987000000    -6.364000000    -3.499000000
H     2.849000000    -5.928000000    -2.056000000
