201
-1259.80722
C     0.754000000     2.714000000     4.770000000
H    -0.297000000     2.591000000     5.019000000
C     1.240000000     3.224000000     3.493000000
C     2.626000000     3.377000000     3.314000000
H     3.000000000     3.827000000     2.398000000
C     0.257000000     3.587000000     2.394000000
O    -1.016000000     4.001000000     2.935000000
H     0.235000000     2.678000000     1.775000000
O     0.681000000     4.583000000     1.471000000
C     0.315000000     4.457000000     0.113000000
C     1.447000000     4.177000000    -0.671000000
H     2.449000000     4.126000000    -0.252000000
C     1.247000000     4.077000000    -2.056000000
O     2.346000000     3.588000000    -2.740000000
C    -0.053000000     4.153000000    -2.597000000
C    -0.278000000     3.869000000    -4.109000000
H    -1.162000000     4.407000000    -4.458000000
C    -0.433000000     2.410000000    -4.443000000
C    -1.726000000     1.918000000    -4.511000000
H    -2.599000000     2.542000000    -4.338000000
H     0.638000000     4.245000000    -4.570000000
C    -1.099000000     4.501000000    -1.777000000
H    -2.062000000     4.563000000    -2.277000000
C    -0.876000000     4.785000000    -0.474000000
C    -1.932000000     5.246000000     0.460000000
H    -2.692000000     5.825000000    -0.069000000
H    -1.467000000     5.896000000     1.204000000
C    -2.616000000     4.067000000     1.088000000
C    -3.551000000     3.370000000     0.374000000
H    -4.045000000     3.815000000    -0.487000000
C    -2.121000000     3.455000000     2.286000000
C    -2.757000000     2.310000000     2.821000000
H    -2.418000000     1.888000000     3.764000000
C    -3.751000000     1.661000000     2.164000000
O    -4.181000000     0.376000000     2.569000000
C    -3.717000000    -0.801000000     1.880000000
C    -3.334000000    -1.889000000     2.834000000
C    -3.361000000    -3.225000000     2.488000000
H    -3.845000000    -3.437000000     1.538000000
C    -2.719000000    -1.515000000     4.032000000
H    -2.506000000    -0.477000000     4.279000000
O    -4.697000000    -1.229000000     0.957000000
H    -2.828000000    -0.474000000     1.320000000
C    -4.128000000     2.224000000     0.907000000
C    -5.172000000     1.558000000     0.039000000
H    -5.620000000     2.301000000    -0.626000000
H    -5.846000000     1.096000000     0.763000000
C    -4.654000000     0.379000000    -0.838000000
C    -4.315000000     0.662000000    -2.202000000
H    -4.375000000     1.670000000    -2.603000000
C    -4.538000000    -0.941000000    -0.364000000
C    -4.093000000    -1.896000000    -1.249000000
H    -3.906000000    -2.944000000    -1.028000000
C    -3.669000000    -1.542000000    -2.526000000
O    -2.958000000    -2.465000000    -3.299000000
C    -1.533000000    -2.265000000    -3.313000000
C    -0.800000000    -3.544000000    -2.967000000
C    -1.367000000    -4.667000000    -2.348000000
H    -2.426000000    -4.673000000    -2.106000000
C     0.593000000    -3.636000000    -3.295000000
H     0.985000000    -2.786000000    -3.847000000
O    -1.200000000    -1.734000000    -4.657000000
H    -1.203000000    -1.537000000    -2.557000000
C    -3.905000000    -0.284000000    -3.103000000
C    -3.442000000     0.105000000    -4.482000000
H    -4.142000000     0.772000000    -4.991000000
H    -3.642000000    -0.804000000    -5.053000000
C    -1.998000000     0.538000000    -4.587000000
C    -0.960000000    -0.368000000    -4.573000000
C     0.373000000     0.120000000    -4.485000000
H     1.221000000    -0.554000000    -4.574000000
C     0.636000000     1.519000000    -4.490000000
O     1.916000000     1.861000000    -4.202000000
C     2.421000000     2.147000000    -2.885000000
H     1.649000000     1.621000000    -2.304000000
C     3.728000000     1.477000000    -2.618000000
C     4.476000000     1.794000000    -1.474000000
H     4.218000000     2.592000000    -0.783000000
C     4.144000000     0.487000000    -3.508000000
H     3.633000000     0.348000000    -4.457000000
C     5.321000000    -0.211000000    -3.218000000
O     5.711000000    -1.273000000    -4.064000000
C     5.996000000    -0.038000000    -2.042000000
H     6.923000000    -0.539000000    -1.778000000
C     5.558000000     0.964000000    -1.187000000
O     6.194000000     1.060000000     0.038000000
C     6.183000000     2.163000000     0.858000000
C     5.457000000     2.140000000     2.104000000
H     4.989000000     1.231000000     2.474000000
C     6.846000000     3.330000000     0.482000000
H     7.412000000     3.402000000    -0.443000000
C     6.818000000     4.461000000     1.318000000
H     7.233000000     5.400000000     0.961000000
C     6.143000000     4.438000000     2.548000000
H     6.083000000     5.286000000     3.225000000
C     5.559000000     3.248000000     2.976000000
O     4.868000000     3.185000000     4.194000000
C     3.509000000     2.933000000     4.339000000
C     3.058000000     2.462000000     5.556000000
H     3.784000000     2.228000000     6.330000000
C     1.660000000     2.333000000     5.736000000
O     1.290000000     1.738000000     6.913000000
C     0.074000000     1.091000000     7.066000000
C    -0.157000000    -0.110000000     6.382000000
H     0.545000000    -0.549000000     5.677000000
C    -0.809000000     1.550000000     8.042000000
H    -0.612000000     2.429000000     8.650000000
C    -1.989000000     0.879000000     8.261000000
H    -2.733000000     1.198000000     8.986000000
C    -2.263000000    -0.277000000     7.532000000
H    -3.093000000    -0.958000000     7.706000000
C    -1.346000000    -0.767000000     6.596000000
O    -1.538000000    -2.088000000     6.018000000
C    -2.254000000    -2.409000000     4.926000000
C    -2.299000000    -3.746000000     4.573000000
H    -1.898000000    -4.428000000     5.318000000
C    -2.795000000    -4.179000000     3.326000000
O    -2.702000000    -5.503000000     2.946000000
C    -3.006000000    -5.945000000     1.691000000
C    -1.972000000    -6.060000000     0.767000000
H    -0.960000000    -5.712000000     0.955000000
C    -4.328000000    -6.229000000     1.274000000
H    -5.262000000    -6.148000000     1.823000000
C    -4.521000000    -6.807000000     0.040000000
H    -5.538000000    -6.836000000    -0.343000000
C    -3.497000000    -7.063000000    -0.809000000
H    -3.679000000    -7.488000000    -1.793000000
C    -2.188000000    -6.720000000    -0.449000000
O    -1.233000000    -6.899000000    -1.408000000
C    -0.590000000    -5.781000000    -2.011000000
C     0.775000000    -5.775000000    -2.346000000
H     1.330000000    -6.666000000    -2.062000000
C     1.401000000    -4.705000000    -2.973000000
O     2.734000000    -4.845000000    -3.233000000
C     3.432000000    -4.049000000    -4.095000000
C     3.596000000    -4.495000000    -5.372000000
H     3.024000000    -5.380000000    -5.638000000
C     4.343000000    -3.810000000    -6.302000000
H     4.483000000    -4.036000000    -7.356000000
C     4.935000000    -2.631000000    -5.825000000
H     5.609000000    -2.046000000    -6.446000000
C     4.930000000    -2.291000000    -4.502000000
C     4.164000000    -2.970000000    -3.577000000
H     4.039000000    -2.617000000    -2.557000000
O     0.148000000    -3.654000000     7.773000000
H     0.064000000    -4.600000000     7.659000000
H     0.155000000    -3.304000000     6.882000000
O     3.679000000    -2.695000000     8.817000000
H     4.043000000    -2.110000000     8.153000000
H     2.764000000    -2.425000000     8.898000000
O     0.702000000    -6.435000000     4.751000000
H     0.888000000    -5.497000000     4.806000000
H     0.383000000    -6.667000000     5.623000000
O     5.068000000    -4.192000000     6.226000000
H     4.462000000    -4.805000000     6.641000000
H     4.503000000    -3.523000000     5.838000000
O     4.518000000    -7.057000000     2.973000000
H     4.130000000    -7.329000000     2.141000000
H     4.614000000    -6.108000000     2.892000000
O    -0.122000000    -6.487000000     7.342000000
H    -1.070000000    -6.563000000     7.228000000
H     0.115000000    -7.240000000     7.884000000
O     5.077000000    -2.112000000     3.488000000
H     4.535000000    -1.940000000     2.718000000
H     4.449000000    -2.270000000     4.193000000
O     4.952000000    -1.487000000     0.885000000
H     5.112000000    -0.576000000     0.639000000
H     5.807000000    -1.911000000     0.802000000
O     6.224000000    -4.809000000     2.438000000
H     5.912000000    -3.910000000     2.535000000
H     6.989000000    -4.860000000     3.011000000
O     3.757000000    -8.019000000     6.697000000
H     3.812000000    -8.360000000     7.590000000
H     3.213000000    -7.235000000     6.774000000
O     4.692000000    -1.129000000     6.908000000
H     5.555000000    -1.334000000     6.548000000
H     4.076000000    -1.455000000     6.252000000
O     2.635000000    -5.543000000     6.873000000
H     1.806000000    -5.753000000     7.303000000
H     2.390000000    -4.962000000     6.152000000
O     2.666000000    -3.489000000     0.380000000
H     1.999000000    -2.925000000     0.770000000
H     3.470000000    -2.970000000     0.415000000
O     6.937000000    -0.519000000     5.104000000
H     7.588000000    -1.132000000     4.763000000
H     6.184000000    -0.620000000     4.522000000
O     0.523000000    -1.783000000     9.894000000
H    -0.194000000    -2.128000000    10.426000000
H     0.509000000    -2.314000000     9.098000000
O     5.078000000    -5.091000000     9.320000000
H     5.924000000    -4.820000000     8.963000000
H     4.464000000    -4.423000000     9.015000000
O     7.659000000    -5.114000000     6.176000000
H     6.903000000    -4.529000000     6.232000000
H     7.282000000    -5.977000000     6.010000000
O     2.732000000    -6.533000000     0.516000000
H     2.992000000    -6.874000000    -0.340000000
H     2.718000000    -5.583000000     0.402000000
O     1.280000000    -7.816000000     2.632000000
H     1.018000000    -7.095000000     3.206000000
H     1.755000000    -7.392000000     1.918000000
