201
-1255.50662
C     0.881000000     2.206000000     4.120000000
H     0.070000000     2.753000000     4.593000000
C     1.382000000     2.562000000     2.859000000
C     2.453000000     1.893000000     2.363000000
H     2.768000000     2.171000000     1.360000000
C     0.476000000     3.481000000     1.985000000
O    -0.670000000     4.116000000     2.629000000
H    -0.063000000     2.770000000     1.341000000
O     1.198000000     4.467000000     1.302000000
C     0.888000000     4.431000000    -0.118000000
C     1.829000000     3.867000000    -0.962000000
H     2.741000000     3.585000000    -0.443000000
C     1.690000000     3.701000000    -2.308000000
O     2.646000000     3.072000000    -3.059000000
C     0.462000000     4.093000000    -2.826000000
C    -0.021000000     3.736000000    -4.262000000
H    -0.817000000     4.462000000    -4.440000000
C    -0.406000000     2.322000000    -4.515000000
C    -1.763000000     1.940000000    -4.471000000
H    -2.511000000     2.648000000    -4.122000000
H     0.765000000     3.994000000    -4.975000000
C    -0.578000000     4.608000000    -1.952000000
H    -1.560000000     4.780000000    -2.388000000
C    -0.371000000     4.819000000    -0.623000000
C    -1.413000000     5.440000000     0.245000000
H    -2.103000000     6.059000000    -0.333000000
H    -0.940000000     6.034000000     1.029000000
C    -2.281000000     4.415000000     0.871000000
C    -3.418000000     3.918000000     0.210000000
H    -3.617000000     4.317000000    -0.781000000
C    -1.921000000     3.832000000     2.136000000
C    -2.724000000     2.908000000     2.692000000
H    -2.502000000     2.379000000     3.616000000
C    -3.743000000     2.351000000     1.990000000
O    -4.356000000     1.208000000     2.546000000
C    -3.999000000    -0.087000000     2.056000000
C    -3.958000000    -1.074000000     3.245000000
C    -4.086000000    -2.465000000     3.049000000
H    -4.392000000    -2.866000000     2.086000000
C    -3.518000000    -0.636000000     4.500000000
H    -3.341000000     0.427000000     4.644000000
O    -4.916000000    -0.534000000     1.011000000
H    -2.973000000     0.111000000     1.712000000
C    -4.141000000     2.893000000     0.739000000
C    -5.268000000     2.188000000    -0.064000000
H    -5.737000000     2.942000000    -0.700000000
H    -6.002000000     1.818000000     0.655000000
C    -4.751000000     1.038000000    -0.891000000
C    -4.496000000     1.142000000    -2.230000000
H    -4.667000000     2.057000000    -2.791000000
C    -4.581000000    -0.255000000    -0.267000000
C    -4.047000000    -1.360000000    -0.959000000
H    -3.937000000    -2.334000000    -0.489000000
C    -3.737000000    -1.226000000    -2.252000000
O    -3.048000000    -2.210000000    -2.925000000
C    -1.648000000    -1.947000000    -3.117000000
C    -0.756000000    -3.014000000    -2.443000000
C    -0.974000000    -3.472000000    -1.084000000
H    -1.862000000    -3.186000000    -0.526000000
C     0.333000000    -3.598000000    -3.100000000
H     0.580000000    -3.146000000    -4.058000000
O    -1.326000000    -1.628000000    -4.566000000
H    -1.371000000    -1.078000000    -2.502000000
C    -3.967000000    -0.003000000    -2.942000000
C    -3.585000000     0.078000000    -4.448000000
H    -4.347000000     0.743000000    -4.858000000
H    -3.751000000    -0.900000000    -4.904000000
C    -2.147000000     0.606000000    -4.680000000
C    -1.086000000    -0.268000000    -4.901000000
C     0.262000000     0.106000000    -4.998000000
H     1.071000000    -0.611000000    -5.114000000
C     0.585000000     1.413000000    -4.895000000
O     1.956000000     1.733000000    -4.838000000
C     2.541000000     1.718000000    -3.493000000
H     1.926000000     1.144000000    -2.785000000
C     3.847000000     0.998000000    -3.480000000
C     4.699000000     1.299000000    -2.440000000
H     4.446000000     2.194000000    -1.878000000
C     4.179000000    -0.039000000    -4.328000000
H     3.508000000    -0.331000000    -5.132000000
C     5.400000000    -0.772000000    -4.106000000
O     5.627000000    -1.891000000    -4.898000000
C     6.181000000    -0.487000000    -3.069000000
H     7.058000000    -1.078000000    -2.817000000
C     5.853000000     0.588000000    -2.214000000
O     6.810000000     0.995000000    -1.320000000
C     6.459000000     1.428000000    -0.008000000
C     5.439000000     0.789000000     0.716000000
H     4.896000000    -0.041000000     0.273000000
C     7.195000000     2.470000000     0.510000000
H     8.002000000     2.843000000    -0.116000000
C     6.777000000     3.085000000     1.725000000
H     7.046000000     4.051000000     2.144000000
C     5.782000000     2.445000000     2.450000000
H     5.400000000     2.865000000     3.377000000
C     5.182000000     1.289000000     1.956000000
O     4.359000000     0.516000000     2.680000000
C     3.154000000     0.984000000     3.185000000
C     2.670000000     0.651000000     4.426000000
H     3.207000000    -0.037000000     5.075000000
C     1.537000000     1.217000000     4.910000000
O     1.256000000     1.111000000     6.215000000
C     0.024000000     0.997000000     6.802000000
C    -1.024000000     0.148000000     6.370000000
H    -0.893000000    -0.344000000     5.409000000
C    -0.135000000     1.739000000     7.988000000
H     0.652000000     2.401000000     8.342000000
C    -1.275000000     1.604000000     8.794000000
H    -1.423000000     2.053000000     9.773000000
C    -2.201000000     0.671000000     8.413000000
H    -2.988000000     0.390000000     9.108000000
C    -2.091000000    -0.069000000     7.221000000
O    -3.049000000    -0.992000000     6.815000000
C    -3.414000000    -1.502000000     5.608000000
C    -3.646000000    -2.862000000     5.405000000
H    -3.543000000    -3.597000000     6.200000000
C    -3.930000000    -3.349000000     4.119000000
O    -3.950000000    -4.717000000     3.927000000
C    -3.306000000    -5.191000000     2.830000000
C    -2.042000000    -4.742000000     2.401000000
H    -1.470000000    -4.054000000     3.019000000
C    -3.893000000    -6.241000000     2.045000000
H    -4.895000000    -6.547000000     2.335000000
C    -3.299000000    -6.680000000     0.905000000
H    -3.805000000    -7.425000000     0.296000000
C    -2.046000000    -6.268000000     0.542000000
H    -1.549000000    -6.665000000    -0.340000000
C    -1.464000000    -5.268000000     1.281000000
O    -0.321000000    -4.775000000     0.806000000
C    -0.081000000    -4.334000000    -0.453000000
C     0.979000000    -4.857000000    -1.139000000
H     1.715000000    -5.483000000    -0.641000000
C     1.214000000    -4.499000000    -2.450000000
O     2.471000000    -4.773000000    -2.914000000
C     3.103000000    -4.367000000    -4.134000000
C     3.094000000    -5.104000000    -5.325000000
H     2.486000000    -6.005000000    -5.303000000
C     3.912000000    -4.760000000    -6.377000000
H     3.902000000    -5.333000000    -7.301000000
C     4.780000000    -3.677000000    -6.235000000
H     5.489000000    -3.401000000    -7.012000000
C     4.768000000    -2.936000000    -5.050000000
C     3.906000000    -3.240000000    -3.972000000
H     3.893000000    -2.638000000    -3.067000000
O     9.546000000    -3.627000000     3.684000000
H     8.892000000    -3.396000000     3.024000000
H     9.742000000    -4.549000000     3.515000000
O     4.070000000    -4.973000000     4.676000000
H     3.761000000    -5.112000000     5.572000000
H     3.505000000    -4.280000000     4.333000000
O     6.706000000    -7.931000000     4.299000000
H     6.787000000    -6.978000000     4.324000000
H     7.591000000    -8.252000000     4.471000000
O     7.425000000    -2.154000000    -0.101000000
H     7.499000000    -2.085000000     0.850000000
H     6.671000000    -1.607000000    -0.323000000
O     3.373000000    -1.351000000     7.393000000
H     2.690000000    -1.620000000     6.779000000
H     3.996000000    -2.078000000     7.390000000
O     5.383000000    -4.327000000    -0.114000000
H     6.196000000    -3.832000000    -0.216000000
H     4.834000000    -3.774000000     0.442000000
O     6.965000000    -7.536000000     1.115000000
H     7.127000000    -6.829000000     1.739000000
H     7.062000000    -7.125000000     0.256000000
O     2.485000000    -7.182000000     1.547000000
H     2.279000000    -7.969000000     1.042000000
H     3.018000000    -7.498000000     2.277000000
O     6.159000000    -5.254000000     2.886000000
H     6.347000000    -4.786000000     2.073000000
H     5.207000000    -5.207000000     2.975000000
O     4.042000000    -6.659000000    -0.577000000
H     3.518000000    -6.621000000     0.223000000
H     4.689000000    -5.962000000    -0.472000000
O     3.166000000    -5.043000000     7.392000000
H     3.988000000    -4.765000000     7.794000000
H     3.125000000    -5.985000000     7.556000000
O     1.715000000    -2.962000000     5.863000000
H     1.569000000    -2.958000000     4.917000000
H     1.879000000    -3.880000000     6.077000000
O     7.135000000    -2.794000000     5.629000000
H     6.345000000    -2.683000000     5.100000000
H     7.738000000    -3.272000000     5.060000000
O     5.503000000    -2.027000000     3.676000000
H     4.924000000    -2.546000000     3.118000000
H     5.007000000    -1.229000000     3.858000000
O     7.915000000    -1.781000000     2.496000000
H     8.446000000    -1.038000000     2.785000000
H     7.123000000    -1.732000000     3.031000000
O     8.731000000    -4.746000000     1.016000000
H     9.358000000    -5.140000000     0.409000000
H     8.466000000    -3.931000000     0.591000000
O     1.344000000    -5.773000000     3.714000000
H     1.497000000    -6.161000000     2.852000000
H     1.868000000    -4.972000000     3.712000000
O     3.907000000    -7.845000000     3.654000000
H     3.561000000    -6.985000000     3.893000000
H     4.851000000    -7.710000000     3.575000000
O    -0.820000000    -6.500000000     5.390000000
H    -1.558000000    -6.902000000     4.933000000
H    -0.138000000    -6.423000000     4.723000000
