201
-1240.62997
C     0.793000000     3.526000000     4.854000000
H    -0.174000000     3.965000000     5.087000000
C     1.229000000     3.528000000     3.529000000
C     2.470000000     2.961000000     3.272000000
H     2.832000000     2.843000000     2.254000000
C     0.268000000     3.964000000     2.387000000
O    -1.020000000     4.551000000     2.808000000
H     0.039000000     2.941000000     2.056000000
O     1.028000000     4.754000000     1.341000000
C     0.662000000     4.690000000    -0.059000000
C     1.667000000     4.228000000    -0.914000000
H     2.625000000     4.079000000    -0.422000000
C     1.438000000     3.885000000    -2.224000000
O     2.452000000     3.198000000    -2.901000000
C     0.177000000     4.077000000    -2.760000000
C    -0.116000000     3.921000000    -4.295000000
H    -0.976000000     4.561000000    -4.505000000
C    -0.582000000     2.451000000    -4.440000000
C    -1.904000000     2.109000000    -4.255000000
H    -2.682000000     2.851000000    -4.098000000
H     0.741000000     4.065000000    -4.955000000
C    -0.875000000     4.571000000    -1.915000000
H    -1.779000000     4.864000000    -2.442000000
C    -0.645000000     4.795000000    -0.557000000
C    -1.766000000     5.358000000     0.327000000
H    -2.434000000     5.904000000    -0.342000000
H    -1.379000000     6.197000000     0.911000000
C    -2.589000000     4.298000000     1.029000000
C    -3.649000000     3.636000000     0.480000000
H    -4.018000000     3.821000000    -0.526000000
C    -2.084000000     3.898000000     2.268000000
C    -2.656000000     2.800000000     2.991000000
H    -2.177000000     2.509000000     3.923000000
C    -3.603000000     2.000000000     2.296000000
O    -3.900000000     0.820000000     2.910000000
C    -3.526000000    -0.346000000     2.153000000
C    -3.002000000    -1.329000000     3.180000000
C    -3.230000000    -2.728000000     2.991000000
H    -3.833000000    -3.123000000     2.178000000
C    -2.113000000    -0.960000000     4.175000000
H    -1.853000000     0.091000000     4.272000000
O    -4.684000000    -0.838000000     1.303000000
H    -2.697000000    -0.015000000     1.510000000
C    -4.241000000     2.531000000     1.153000000
C    -5.420000000     1.772000000     0.485000000
H    -5.998000000     2.488000000    -0.103000000
H    -6.031000000     1.391000000     1.306000000
C    -4.878000000     0.709000000    -0.497000000
C    -4.571000000     0.962000000    -1.806000000
H    -4.811000000     1.933000000    -2.231000000
C    -4.543000000    -0.537000000    -0.052000000
C    -4.018000000    -1.530000000    -0.851000000
H    -3.676000000    -2.455000000    -0.395000000
C    -3.686000000    -1.233000000    -2.118000000
O    -3.038000000    -2.217000000    -2.836000000
C    -1.703000000    -2.040000000    -3.178000000
C    -0.904000000    -3.333000000    -3.025000000
C    -1.076000000    -4.094000000    -1.879000000
H    -1.816000000    -3.849000000    -1.121000000
C     0.067000000    -3.656000000    -4.021000000
H     0.169000000    -3.096000000    -4.947000000
O    -1.579000000    -1.483000000    -4.521000000
H    -1.168000000    -1.392000000    -2.468000000
C    -3.990000000     0.016000000    -2.629000000
C    -3.728000000     0.314000000    -4.079000000
H    -4.552000000     0.998000000    -4.295000000
H    -3.987000000    -0.554000000    -4.688000000
C    -2.305000000     0.797000000    -4.317000000
C    -1.306000000    -0.178000000    -4.590000000
C    -0.038000000     0.253000000    -4.938000000
H     0.721000000    -0.517000000    -5.049000000
C     0.349000000     1.521000000    -4.818000000
O     1.728000000     1.881000000    -4.735000000
C     2.175000000     1.872000000    -3.363000000
H     1.338000000     1.528000000    -2.737000000
C     3.389000000     0.988000000    -3.171000000
C     4.007000000     0.958000000    -1.924000000
H     3.673000000     1.605000000    -1.118000000
C     3.893000000     0.103000000    -4.160000000
H     3.507000000     0.161000000    -5.174000000
C     4.943000000    -0.832000000    -3.839000000
O     5.361000000    -1.678000000    -4.806000000
C     5.412000000    -0.865000000    -2.544000000
H     6.172000000    -1.528000000    -2.137000000
C     4.997000000     0.080000000    -1.571000000
O     5.585000000     0.034000000    -0.291000000
C     5.561000000     1.071000000     0.589000000
C     5.094000000     0.843000000     1.903000000
H     4.511000000    -0.042000000     2.149000000
C     6.197000000     2.243000000     0.219000000
H     6.646000000     2.347000000    -0.765000000
C     6.278000000     3.328000000     1.102000000
H     6.838000000     4.247000000     0.948000000
C     5.729000000     3.130000000     2.414000000
H     5.714000000     3.879000000     3.201000000
C     5.147000000     1.921000000     2.783000000
O     4.548000000     1.861000000     4.031000000
C     3.385000000     2.557000000     4.254000000
C     2.882000000     2.521000000     5.563000000
H     3.612000000     2.194000000     6.299000000
C     1.566000000     2.997000000     5.856000000
O     1.058000000     2.748000000     7.119000000
C     0.010000000     1.863000000     7.262000000
C     0.046000000     0.655000000     6.510000000
H     0.839000000     0.462000000     5.792000000
C    -1.000000000     2.214000000     8.065000000
H    -0.992000000     3.199000000     8.526000000
C    -2.024000000     1.307000000     8.289000000
H    -2.858000000     1.642000000     8.901000000
C    -2.005000000     0.157000000     7.582000000
H    -2.867000000    -0.505000000     7.612000000
C    -0.978000000    -0.236000000     6.752000000
O    -0.940000000    -1.535000000     6.249000000
C    -1.713000000    -1.930000000     5.126000000
C    -1.920000000    -3.295000000     4.874000000
H    -1.393000000    -4.071000000     5.422000000
C    -2.671000000    -3.752000000     3.764000000
O    -2.901000000    -5.111000000     3.560000000
C    -2.561000000    -5.778000000     2.409000000
C    -1.561000000    -5.341000000     1.541000000
H    -0.963000000    -4.516000000     1.919000000
C    -3.322000000    -6.863000000     1.997000000
H    -4.206000000    -7.075000000     2.593000000
C    -3.157000000    -7.597000000     0.787000000
H    -3.867000000    -8.376000000     0.522000000
C    -2.092000000    -7.179000000     0.011000000
H    -2.025000000    -7.583000000    -0.995000000
C    -1.334000000    -6.065000000     0.368000000
O    -0.203000000    -5.824000000    -0.354000000
C    -0.170000000    -5.148000000    -1.592000000
C     0.831000000    -5.453000000    -2.469000000
H     1.431000000    -6.327000000    -2.232000000
C     0.882000000    -4.732000000    -3.708000000
O     1.804000000    -5.140000000    -4.647000000
C     2.878000000    -4.458000000    -5.229000000
C     3.535000000    -5.158000000    -6.228000000
H     3.179000000    -6.143000000    -6.518000000
C     4.764000000    -4.683000000    -6.704000000
H     5.271000000    -5.315000000    -7.429000000
C     5.292000000    -3.493000000    -6.235000000
H     6.194000000    -3.077000000    -6.677000000
C     4.670000000    -2.788000000    -5.253000000
C     3.479000000    -3.267000000    -4.725000000
H     2.951000000    -2.732000000    -3.940000000
O     4.837000000    -7.185000000    -4.049000000
H     5.425000000    -7.457000000    -4.754000000
H     4.834000000    -6.229000000    -4.095000000
O     6.719000000    -4.290000000     5.129000000
H     7.463000000    -3.897000000     4.673000000
H     5.953000000    -3.846000000     4.765000000
O     8.560000000    -1.819000000    -0.730000000
H     8.367000000    -1.915000000     0.202000000
H     8.596000000    -2.716000000    -1.061000000
O     1.026000000    -8.756000000     1.115000000
H     1.638000000    -8.046000000     1.309000000
H     0.166000000    -8.337000000     1.112000000
O     6.300000000    -4.048000000     0.292000000
H     5.359000000    -4.158000000     0.429000000
H     6.534000000    -4.742000000    -0.325000000
O     2.918000000    -1.888000000     5.564000000
H     2.320000000    -2.418000000     5.036000000
H     2.704000000    -2.115000000     6.469000000
O     4.484000000    -5.486000000    -2.032000000
H     3.968000000    -5.090000000    -1.330000000
H     4.196000000    -6.398000000    -2.058000000
O     7.453000000    -6.740000000     2.838000000
H     7.851000000    -6.077000000     3.402000000
H     6.545000000    -6.454000000     2.736000000
O     4.089000000    -8.410000000    -1.187000000
H     3.793000000    -7.918000000    -0.421000000
H     5.022000000    -8.556000000    -1.032000000
O     1.012000000    -9.574000000    -1.426000000
H     1.419000000    -9.207000000    -0.641000000
H     1.443000000    -9.124000000    -2.153000000
O     4.827000000    -6.168000000     3.408000000
H     4.389000000    -5.317000000     3.388000000
H     4.989000000    -6.333000000     4.337000000
O     2.660000000    -5.295000000     6.460000000
H     2.688000000    -4.518000000     7.019000000
H     3.397000000    -5.829000000     6.755000000
O     3.298000000    -7.229000000     1.567000000
H     3.285000000    -6.434000000     1.035000000
H     3.800000000    -6.988000000     2.346000000
O     1.628000000    -4.115000000     4.214000000
H     2.109000000    -4.189000000     3.389000000
H     2.025000000    -4.776000000     4.782000000
O     4.862000000    -2.774000000     3.896000000
H     4.226000000    -2.291000000     4.424000000
H     4.342000000    -3.176000000     3.201000000
O     6.846000000    -6.375000000    -1.543000000
H     7.206000000    -6.786000000    -2.329000000
H     6.058000000    -5.925000000    -1.846000000
O     0.240000000    -6.235000000     5.327000000
H     0.554000000    -5.565000000     4.720000000
H     0.568000000    -5.955000000     6.182000000
O     8.683000000    -2.382000000     3.848000000
H     9.398000000    -2.918000000     3.505000000
H     8.141000000    -2.188000000     3.084000000
O     7.189000000    -1.765000000     1.703000000
H     6.784000000    -1.196000000     1.048000000
H     6.812000000    -2.629000000     1.535000000
