201
-1272.65000
C     1.309000000     2.068000000     4.307000000
H     0.268000000     1.774000000     4.416000000
C     1.691000000     3.091000000     3.390000000
C     3.074000000     3.295000000     3.211000000
H     3.487000000     3.951000000     2.450000000
C     0.746000000     3.749000000     2.420000000
O    -0.523000000     4.203000000     3.036000000
H     0.453000000     2.905000000     1.780000000
O     1.394000000     4.710000000     1.559000000
C     1.187000000     4.615000000     0.199000000
C     2.214000000     3.997000000    -0.582000000
H     3.142000000     3.630000000    -0.152000000
C     1.991000000     3.661000000    -1.904000000
O     2.901000000     2.896000000    -2.534000000
C     0.705000000     4.002000000    -2.475000000
C     0.402000000     3.729000000    -3.971000000
H    -0.304000000     4.506000000    -4.274000000
C    -0.077000000     2.325000000    -4.051000000
C    -1.460000000     2.050000000    -4.227000000
H    -2.225000000     2.822000000    -4.239000000
H     1.187000000     3.893000000    -4.713000000
C    -0.158000000     4.789000000    -1.708000000
H    -1.065000000     5.102000000    -2.220000000
C     0.033000000     5.074000000    -0.394000000
C    -1.127000000     5.618000000     0.441000000
H    -1.786000000     6.254000000    -0.154000000
H    -0.782000000     6.317000000     1.205000000
C    -1.982000000     4.583000000     1.017000000
C    -3.033000000     4.084000000     0.245000000
H    -3.292000000     4.447000000    -0.746000000
C    -1.717000000     3.979000000     2.275000000
C    -2.468000000     2.903000000     2.696000000
H    -2.074000000     2.472000000     3.613000000
C    -3.486000000     2.426000000     1.939000000
O    -4.130000000     1.336000000     2.514000000
C    -3.811000000     0.060000000     1.827000000
C    -3.472000000    -1.026000000     2.800000000
C    -3.350000000    -2.376000000     2.381000000
H    -3.590000000    -2.654000000     1.358000000
C    -3.203000000    -0.773000000     4.159000000
H    -3.208000000     0.232000000     4.573000000
O    -4.764000000    -0.360000000     0.883000000
H    -2.963000000     0.202000000     1.141000000
C    -3.724000000     2.969000000     0.668000000
C    -4.786000000     2.424000000    -0.196000000
H    -5.184000000     3.246000000    -0.794000000
H    -5.659000000     2.213000000     0.425000000
C    -4.543000000     1.227000000    -1.026000000
C    -4.246000000     1.441000000    -2.363000000
H    -4.137000000     2.477000000    -2.674000000
C    -4.529000000    -0.079000000    -0.513000000
C    -4.284000000    -1.201000000    -1.284000000
H    -4.233000000    -2.249000000    -0.997000000
C    -3.957000000    -0.915000000    -2.615000000
O    -3.444000000    -2.045000000    -3.299000000
C    -2.011000000    -2.135000000    -3.256000000
C    -1.544000000    -3.588000000    -3.086000000
C    -2.341000000    -4.477000000    -2.389000000
H    -3.177000000    -4.038000000    -1.851000000
C    -0.295000000    -3.967000000    -3.536000000
H     0.337000000    -3.171000000    -3.922000000
O    -1.552000000    -1.551000000    -4.490000000
H    -1.657000000    -1.527000000    -2.411000000
C    -3.945000000     0.354000000    -3.189000000
C    -3.456000000     0.559000000    -4.589000000
H    -3.924000000     1.389000000    -5.121000000
H    -3.650000000    -0.367000000    -5.134000000
C    -1.976000000     0.778000000    -4.430000000
C    -1.090000000    -0.289000000    -4.381000000
C     0.275000000    -0.055000000    -4.374000000
H     0.984000000    -0.871000000    -4.485000000
C     0.781000000     1.224000000    -4.252000000
O     2.163000000     1.342000000    -4.082000000
C     2.571000000     1.504000000    -2.749000000
H     1.681000000     1.322000000    -2.130000000
C     3.736000000     0.613000000    -2.334000000
C     4.712000000     1.149000000    -1.516000000
H     4.710000000     2.183000000    -1.181000000
C     3.817000000    -0.690000000    -2.734000000
H     2.998000000    -1.042000000    -3.357000000
C     4.768000000    -1.557000000    -2.261000000
O     4.628000000    -2.904000000    -2.557000000
C     5.780000000    -1.039000000    -1.423000000
H     6.477000000    -1.778000000    -1.036000000
C     5.764000000     0.253000000    -1.080000000
O     6.780000000     0.676000000    -0.248000000
C     6.602000000     1.846000000     0.477000000
C     5.911000000     1.754000000     1.651000000
H     5.318000000     0.889000000     1.938000000
C     7.118000000     3.090000000    -0.004000000
H     7.589000000     3.164000000    -0.982000000
C     6.997000000     4.266000000     0.820000000
H     7.367000000     5.204000000     0.413000000
C     6.470000000     4.125000000     2.098000000
H     6.624000000     4.964000000     2.773000000
C     5.882000000     2.898000000     2.507000000
O     5.380000000     2.780000000     3.803000000
C     4.040000000     2.649000000     3.993000000
C     3.633000000     1.740000000     4.982000000
H     4.375000000     1.218000000     5.580000000
C     2.273000000     1.410000000     5.061000000
O     1.910000000     0.485000000     6.043000000
C     0.619000000     0.482000000     6.549000000
C    -0.176000000    -0.583000000     6.240000000
H     0.221000000    -1.356000000     5.587000000
C     0.165000000     1.500000000     7.453000000
H     0.807000000     2.314000000     7.781000000
C    -1.143000000     1.417000000     7.938000000
H    -1.514000000     2.225000000     8.562000000
C    -1.973000000     0.346000000     7.574000000
H    -2.970000000     0.225000000     7.990000000
C    -1.494000000    -0.618000000     6.732000000
O    -2.306000000    -1.632000000     6.304000000
C    -2.630000000    -1.799000000     4.961000000
C    -2.473000000    -3.128000000     4.438000000
H    -2.166000000    -3.923000000     5.112000000
C    -2.949000000    -3.414000000     3.179000000
O    -2.576000000    -4.688000000     2.827000000
C    -3.310000000    -5.305000000     1.842000000
C    -2.698000000    -5.507000000     0.624000000
H    -1.682000000    -5.140000000     0.506000000
C    -4.643000000    -5.718000000     2.113000000
H    -5.018000000    -5.469000000     3.103000000
C    -5.292000000    -6.484000000     1.143000000
H    -6.290000000    -6.878000000     1.318000000
C    -4.627000000    -6.741000000    -0.054000000
H    -5.273000000    -7.297000000    -0.729000000
C    -3.359000000    -6.275000000    -0.348000000
O    -2.644000000    -6.667000000    -1.479000000
C    -1.888000000    -5.790000000    -2.180000000
C    -0.725000000    -6.233000000    -2.848000000
H    -0.404000000    -7.264000000    -2.971000000
C     0.083000000    -5.320000000    -3.456000000
O     1.230000000    -5.834000000    -3.983000000
C     2.309000000    -5.076000000    -4.373000000
C     2.885000000    -5.218000000    -5.582000000
H     2.517000000    -5.944000000    -6.302000000
C     4.102000000    -4.570000000    -5.849000000
H     4.539000000    -4.678000000    -6.838000000
C     4.651000000    -3.698000000    -4.873000000
H     5.478000000    -3.011000000    -5.036000000
C     3.995000000    -3.498000000    -3.651000000
C     2.861000000    -4.222000000    -3.369000000
H     2.527000000    -4.345000000    -2.342000000
O    -1.490000000    -6.622000000     6.692000000
H    -1.397000000    -6.340000000     7.602000000
H    -0.937000000    -6.017000000     6.196000000
O     2.855000000    -3.245000000     6.275000000
H     2.230000000    -2.992000000     5.596000000
H     2.329000000    -3.715000000     6.922000000
O     4.876000000    -3.792000000     1.374000000
H     4.895000000    -4.245000000     0.531000000
H     3.975000000    -3.897000000     1.682000000
O     2.777000000    -7.341000000    -1.159000000
H     2.323000000    -6.552000000    -0.862000000
H     2.076000000    -7.965000000    -1.344000000
O     5.688000000    -5.520000000    -0.724000000
H     6.256000000    -4.990000000    -1.284000000
H     5.486000000    -6.293000000    -1.251000000
O     1.653000000    -5.358000000     0.217000000
H     0.956000000    -5.800000000     0.702000000
H     2.010000000    -4.722000000     0.836000000
O    -0.167000000    -6.403000000     2.123000000
H    -0.631000000    -7.211000000     2.342000000
H    -0.693000000    -5.710000000     2.522000000
O     3.213000000    -6.083000000     3.318000000
H     3.743000000    -6.398000000     2.586000000
H     2.772000000    -5.305000000     2.977000000
O     2.875000000    -7.089000000     6.358000000
H     2.713000000    -6.719000000     5.490000000
H     2.082000000    -6.888000000     6.855000000
O     0.236000000    -5.026000000     4.884000000
H     0.782000000    -4.285000000     4.623000000
H     0.522000000    -5.744000000     4.320000000
O     4.386000000    -7.117000000     1.169000000
H     4.282000000    -8.033000000     0.911000000
H     4.152000000    -6.620000000     0.385000000
O     5.508000000    -2.033000000     7.620000000
H     4.565000000    -2.094000000     7.467000000
H     5.740000000    -1.149000000     7.335000000
O     4.935000000    -5.058000000     5.206000000
H     4.519000000    -5.538000000     4.489000000
H     4.231000000    -4.528000000     5.580000000
O     2.576000000    -9.169000000     3.636000000
H     2.620000000    -9.443000000     2.720000000
H     3.013000000    -8.317000000     3.652000000
O     7.254000000    -3.305000000     5.284000000
H     7.577000000    -3.341000000     6.185000000
H     6.345000000    -3.600000000     5.343000000
O     7.162000000    -4.399000000     2.735000000
H     7.339000000    -3.798000000     3.459000000
H     6.435000000    -3.995000000     2.261000000
O     6.215000000    -1.569000000     2.502000000
H     5.645000000    -1.555000000     3.270000000
H     5.705000000    -2.027000000     1.833000000
O     4.390000000    -1.360000000     4.863000000
H     3.599000000    -0.881000000     4.617000000
H     4.068000000    -2.143000000     5.310000000
O     0.921000000    -4.632000000     8.677000000
H     1.129000000    -4.062000000     9.418000000
H     0.006000000    -4.437000000     8.475000000
