201
-1265.37607
C     0.275000000     2.860000000     3.959000000
H    -0.809000000     2.832000000     3.879000000
C     1.036000000     3.178000000     2.826000000
C     2.425000000     3.128000000     2.895000000
H     3.064000000     3.302000000     2.033000000
C     0.304000000     3.509000000     1.551000000
O    -0.945000000     4.143000000     1.877000000
H     0.120000000     2.594000000     0.970000000
O     1.092000000     4.384000000     0.775000000
C     1.196000000     4.288000000    -0.573000000
C     2.327000000     3.694000000    -1.059000000
H     3.148000000     3.441000000    -0.393000000
C     2.449000000     3.402000000    -2.380000000
O     3.504000000     2.646000000    -2.756000000
C     1.387000000     3.659000000    -3.265000000
C     1.268000000     3.099000000    -4.645000000
H     0.594000000     3.678000000    -5.280000000
C     0.837000000     1.628000000    -4.666000000
C    -0.529000000     1.342000000    -4.842000000
H    -1.296000000     2.052000000    -5.139000000
H     2.273000000     3.208000000    -5.059000000
C     0.256000000     4.346000000    -2.734000000
H    -0.620000000     4.431000000    -3.373000000
C     0.086000000     4.530000000    -1.385000000
C    -1.164000000     5.226000000    -0.884000000
H    -1.680000000     5.810000000    -1.649000000
H    -0.827000000     5.945000000    -0.135000000
C    -2.088000000     4.172000000    -0.282000000
C    -3.272000000     3.760000000    -0.939000000
H    -3.407000000     4.071000000    -1.972000000
C    -1.975000000     3.775000000     1.090000000
C    -2.907000000     2.844000000     1.575000000
H    -2.724000000     2.517000000     2.596000000
C    -3.923000000     2.279000000     0.844000000
O    -4.616000000     1.343000000     1.451000000
C    -4.398000000     0.007000000     1.110000000
C    -4.326000000    -0.875000000     2.332000000
C    -4.528000000    -2.280000000     2.155000000
H    -4.835000000    -2.712000000     1.206000000
C    -3.979000000    -0.383000000     3.593000000
H    -3.892000000     0.697000000     3.682000000
O    -5.251000000    -0.424000000     0.132000000
H    -3.415000000    -0.038000000     0.618000000
C    -4.196000000     2.810000000    -0.425000000
C    -5.199000000     2.077000000    -1.280000000
H    -5.549000000     2.806000000    -2.013000000
H    -6.091000000     1.772000000    -0.728000000
C    -4.644000000     0.812000000    -1.898000000
C    -3.927000000     0.819000000    -3.104000000
H    -3.878000000     1.708000000    -3.727000000
C    -4.689000000    -0.375000000    -1.171000000
C    -4.004000000    -1.515000000    -1.577000000
H    -4.055000000    -2.329000000    -0.857000000
C    -3.243000000    -1.504000000    -2.744000000
O    -2.546000000    -2.587000000    -3.014000000
C    -1.139000000    -2.491000000    -2.816000000
C    -0.630000000    -3.739000000    -2.163000000
C    -1.544000000    -4.649000000    -1.604000000
H    -2.580000000    -4.322000000    -1.637000000
C     0.731000000    -3.992000000    -2.079000000
H     1.407000000    -3.332000000    -2.616000000
O    -0.460000000    -2.261000000    -4.087000000
H    -0.886000000    -1.686000000    -2.110000000
C    -3.203000000    -0.345000000    -3.480000000
C    -2.478000000    -0.344000000    -4.798000000
H    -2.976000000     0.327000000    -5.501000000
H    -2.410000000    -1.320000000    -5.283000000
C    -0.971000000     0.046000000    -4.608000000
C    -0.063000000    -1.020000000    -4.320000000
C     1.280000000    -0.677000000    -4.204000000
H     2.035000000    -1.404000000    -3.915000000
C     1.756000000     0.611000000    -4.351000000
O     3.087000000     0.829000000    -4.003000000
C     3.371000000     1.220000000    -2.716000000
H     2.545000000     0.999000000    -2.023000000
C     4.558000000     0.511000000    -2.029000000
C     5.376000000     1.153000000    -1.132000000
H     5.300000000     2.223000000    -0.957000000
C     4.895000000    -0.802000000    -2.329000000
H     4.235000000    -1.322000000    -3.019000000
C     5.978000000    -1.425000000    -1.730000000
O     6.240000000    -2.746000000    -2.107000000
C     6.816000000    -0.819000000    -0.836000000
H     7.668000000    -1.220000000    -0.294000000
C     6.476000000     0.525000000    -0.501000000
O     7.215000000     1.225000000     0.442000000
C     6.736000000     2.146000000     1.298000000
C     5.692000000     1.901000000     2.176000000
H     5.115000000     0.984000000     2.089000000
C     7.565000000     3.262000000     1.505000000
H     8.469000000     3.353000000     0.908000000
C     7.266000000     4.166000000     2.524000000
H     7.820000000     5.093000000     2.646000000
C     6.205000000     3.992000000     3.340000000
H     5.946000000     4.671000000     4.148000000
C     5.445000000     2.816000000     3.196000000
O     4.443000000     2.585000000     4.161000000
C     3.086000000     2.720000000     4.042000000
C     2.294000000     2.427000000     5.156000000
H     2.839000000     2.073000000     6.027000000
C     0.973000000     2.526000000     5.133000000
O     0.348000000     2.383000000     6.356000000
C    -1.010000000     2.067000000     6.459000000
C    -1.511000000     0.875000000     5.996000000
H    -0.827000000     0.175000000     5.523000000
C    -1.822000000     2.945000000     7.173000000
H    -1.515000000     3.973000000     7.349000000
C    -3.074000000     2.501000000     7.515000000
H    -3.713000000     3.074000000     8.182000000
C    -3.573000000     1.289000000     7.081000000
H    -4.568000000     0.908000000     7.292000000
C    -2.844000000     0.464000000     6.279000000
O    -3.359000000    -0.784000000     5.941000000
C    -3.611000000    -1.235000000     4.658000000
C    -3.757000000    -2.625000000     4.434000000
H    -3.484000000    -3.349000000     5.198000000
C    -4.204000000    -3.125000000     3.184000000
O    -4.370000000    -4.532000000     3.167000000
C    -4.468000000    -5.196000000     1.977000000
C    -3.256000000    -5.517000000     1.340000000
H    -2.377000000    -5.216000000     1.905000000
C    -5.694000000    -5.543000000     1.467000000
H    -6.627000000    -5.294000000     1.965000000
C    -5.687000000    -6.103000000     0.149000000
H    -6.630000000    -6.216000000    -0.379000000
C    -4.481000000    -6.393000000    -0.542000000
H    -4.446000000    -6.914000000    -1.496000000
C    -3.252000000    -6.117000000     0.088000000
O    -2.036000000    -6.577000000    -0.380000000
C    -1.131000000    -5.736000000    -0.961000000
C     0.253000000    -6.052000000    -0.899000000
H     0.463000000    -7.030000000    -0.473000000
C     1.167000000    -5.193000000    -1.501000000
O     2.483000000    -5.640000000    -1.647000000
C     3.394000000    -5.030000000    -2.443000000
C     3.333000000    -5.221000000    -3.802000000
H     2.587000000    -5.892000000    -4.220000000
C     4.242000000    -4.643000000    -4.647000000
H     4.184000000    -4.874000000    -5.708000000
C     5.179000000    -3.722000000    -4.135000000
H     5.931000000    -3.362000000    -4.834000000
C     5.241000000    -3.518000000    -2.731000000
C     4.350000000    -4.145000000    -1.816000000
H     4.457000000    -3.981000000    -0.747000000
O     7.219000000    -5.652000000     0.814000000
H     6.460000000    -5.504000000     1.377000000
H     7.624000000    -4.789000000     0.726000000
O    -3.114000000    -6.092000000     5.583000000
H    -3.709000000    -6.317000000     4.868000000
H    -2.457000000    -5.526000000     5.178000000
O     1.412000000    -1.484000000     5.127000000
H     1.873000000    -0.828000000     4.604000000
H     1.225000000    -2.193000000     4.513000000
O     4.190000000    -1.326000000     2.061000000
H     3.595000000    -0.830000000     1.500000000
H     3.799000000    -2.198000000     2.114000000
O     2.377000000    -6.201000000     1.703000000
H     1.426000000    -6.306000000     1.669000000
H     2.509000000    -5.269000000     1.874000000
O    -0.636000000    -7.040000000     2.913000000
H    -0.709000000    -6.404000000     3.625000000
H    -1.517000000    -7.403000000     2.825000000
O     2.602000000    -5.192000000     4.764000000
H     2.065000000    -4.691000000     4.150000000
H     2.660000000    -4.636000000     5.540000000
O     0.727000000    -6.554000000     6.915000000
H     1.487000000    -6.529000000     6.333000000
H     0.663000000    -5.665000000     7.264000000
O    -0.932000000    -4.690000000     4.872000000
H    -0.329000000    -4.342000000     4.215000000
H    -0.519000000    -4.482000000     5.710000000
O     5.262000000    -4.602000000     2.346000000
H     5.166000000    -4.959000000     3.229000000
H     4.404000000    -4.229000000     2.144000000
O     2.433000000    -8.471000000    -0.459000000
H     2.569000000    -7.628000000    -0.892000000
H     3.263000000    -8.650000000    -0.017000000
O     4.027000000    -7.813000000     3.205000000
H     3.492000000    -7.446000000     2.500000000
H     4.052000000    -7.125000000     3.869000000
O     1.716000000    -1.115000000     7.970000000
H     1.267000000    -0.303000000     8.206000000
H     1.725000000    -1.114000000     7.012000000
O     3.612000000    -3.206000000     6.466000000
H     3.398000000    -3.143000000     7.397000000
H     3.658000000    -2.297000000     6.169000000
O     5.388000000    -5.567000000     4.916000000
H     4.479000000    -5.270000000     4.961000000
H     5.725000000    -5.441000000     5.803000000
O     7.498000000    -3.005000000     3.141000000
H     7.283000000    -2.086000000     3.300000000
H     6.730000000    -3.356000000     2.688000000
O     6.393000000    -0.519000000     3.828000000
H     5.824000000    -0.282000000     4.561000000
H     5.792000000    -0.680000000     3.101000000
O     0.313000000    -3.736000000     7.212000000
H     0.863000000    -2.976000000     7.402000000
H    -0.571000000    -3.460000000     7.457000000
O     1.193000000    -8.529000000     4.073000000
H     0.455000000    -8.123000000     3.618000000
H     1.934000000    -7.952000000     3.891000000
