201
-1224.00705
C     2.740000000     2.986000000     3.574000000
H     1.910000000     3.233000000     4.230000000
C     2.720000000     3.245000000     2.221000000
C     3.862000000     2.959000000     1.438000000
H     3.758000000     2.953000000     0.356000000
C     1.442000000     3.675000000     1.558000000
O     0.570000000     4.380000000     2.430000000
H     1.016000000     2.769000000     1.103000000
O     1.705000000     4.649000000     0.551000000
C     0.968000000     4.605000000    -0.586000000
C     1.583000000     4.034000000    -1.733000000
H     2.599000000     3.649000000    -1.740000000
C     0.846000000     3.774000000    -2.866000000
O     1.429000000     3.063000000    -3.929000000
C    -0.534000000     4.024000000    -2.862000000
C    -1.453000000     3.629000000    -4.031000000
H    -2.288000000     4.325000000    -3.931000000
C    -1.891000000     2.193000000    -4.013000000
C    -3.158000000     1.971000000    -3.482000000
H    -3.785000000     2.800000000    -3.164000000
H    -0.817000000     3.919000000    -4.870000000
C    -1.189000000     4.611000000    -1.782000000
H    -2.251000000     4.810000000    -1.905000000
C    -0.433000000     4.953000000    -0.642000000
C    -1.142000000     5.620000000     0.571000000
H    -1.997000000     6.236000000     0.284000000
H    -0.359000000     6.196000000     1.069000000
C    -1.697000000     4.578000000     1.531000000
C    -2.965000000     4.019000000     1.418000000
H    -3.637000000     4.454000000     0.683000000
C    -0.786000000     3.999000000     2.443000000
C    -1.097000000     2.802000000     3.107000000
H    -0.405000000     2.453000000     3.870000000
C    -2.321000000     2.268000000     3.031000000
O    -2.650000000     1.106000000     3.786000000
C    -2.547000000    -0.146000000     3.050000000
C    -1.719000000    -1.285000000     3.823000000
C    -2.081000000    -2.629000000     3.500000000
H    -2.818000000    -2.719000000     2.705000000
C    -0.783000000    -0.979000000     4.793000000
H    -0.640000000     0.034000000     5.161000000
O    -3.945000000    -0.459000000     2.833000000
H    -1.995000000     0.001000000     2.110000000
C    -3.301000000     2.872000000     2.228000000
C    -4.700000000     2.178000000     2.074000000
H    -5.423000000     2.895000000     1.679000000
H    -5.158000000     1.828000000     3.002000000
C    -4.676000000     0.987000000     1.102000000
C    -4.697000000     1.159000000    -0.261000000
H    -4.801000000     2.184000000    -0.608000000
C    -4.410000000    -0.294000000     1.555000000
C    -4.336000000    -1.345000000     0.645000000
H    -3.909000000    -2.317000000     0.880000000
C    -4.507000000    -1.171000000    -0.698000000
O    -4.294000000    -2.223000000    -1.556000000
C    -2.957000000    -2.303000000    -2.213000000
C    -2.560000000    -3.752000000    -2.218000000
C    -2.990000000    -4.601000000    -1.256000000
H    -3.537000000    -4.237000000    -0.390000000
C    -1.628000000    -4.211000000    -3.188000000
H    -1.225000000    -3.508000000    -3.912000000
O    -2.940000000    -1.688000000    -3.526000000
H    -2.316000000    -1.693000000    -1.559000000
C    -4.781000000     0.133000000    -1.216000000
C    -4.901000000     0.346000000    -2.736000000
H    -5.574000000     1.179000000    -2.953000000
H    -5.246000000    -0.575000000    -3.212000000
C    -3.549000000     0.658000000    -3.361000000
C    -2.610000000    -0.365000000    -3.765000000
C    -1.390000000    -0.123000000    -4.325000000
H    -0.721000000    -0.913000000    -4.656000000
C    -1.031000000     1.187000000    -4.448000000
O     0.222000000     1.354000000    -4.991000000
C     1.239000000     1.650000000    -4.020000000
H     0.855000000     1.496000000    -3.001000000
C     2.562000000     0.759000000    -4.043000000
C     3.792000000     1.384000000    -3.784000000
H     3.889000000     2.454000000    -3.621000000
C     2.402000000    -0.593000000    -4.021000000
H     1.390000000    -0.977000000    -4.127000000
C     3.501000000    -1.436000000    -3.815000000
O     3.508000000    -2.781000000    -3.670000000
C     4.750000000    -0.873000000    -3.666000000
H     5.575000000    -1.566000000    -3.520000000
C     4.916000000     0.555000000    -3.517000000
O     6.166000000     1.002000000    -3.060000000
C     6.262000000     2.104000000    -2.178000000
C     6.248000000     1.815000000    -0.837000000
H     6.274000000     0.777000000    -0.516000000
C     6.257000000     3.476000000    -2.660000000
H     6.157000000     3.592000000    -3.737000000
C     6.150000000     4.518000000    -1.753000000
H     6.269000000     5.509000000    -2.182000000
C     6.280000000     4.219000000    -0.398000000
H     6.148000000     5.051000000     0.290000000
C     6.376000000     2.874000000     0.055000000
O     6.246000000     2.661000000     1.478000000
C     5.041000000     2.626000000     2.113000000
C     5.045000000     2.393000000     3.478000000
H     5.979000000     2.257000000     4.016000000
C     3.900000000     2.519000000     4.197000000
O     3.850000000     2.238000000     5.560000000
C     2.864000000     1.558000000     6.294000000
C     2.420000000     0.363000000     5.820000000
H     2.855000000    -0.118000000     4.948000000
C     2.360000000     2.048000000     7.480000000
H     2.725000000     2.979000000     7.906000000
C     1.376000000     1.310000000     8.174000000
H     0.944000000     1.784000000     9.052000000
C     1.032000000     0.069000000     7.701000000
H     0.363000000    -0.565000000     8.276000000
C     1.524000000    -0.474000000     6.538000000
O     1.060000000    -1.736000000     6.181000000
C     0.015000000    -1.972000000     5.286000000
C    -0.128000000    -3.280000000     4.827000000
H     0.582000000    -4.030000000     5.168000000
C    -1.198000000    -3.618000000     3.988000000
O    -1.181000000    -4.865000000     3.453000000
C    -2.272000000    -5.403000000     2.906000000
C    -2.118000000    -5.804000000     1.615000000
H    -1.249000000    -5.481000000     1.047000000
C    -3.337000000    -5.748000000     3.665000000
H    -3.347000000    -5.353000000     4.677000000
C    -4.369000000    -6.412000000     3.056000000
H    -5.248000000    -6.706000000     3.624000000
C    -4.247000000    -6.928000000     1.764000000
H    -5.102000000    -7.432000000     1.319000000
C    -3.126000000    -6.578000000     0.976000000
O    -2.993000000    -6.893000000    -0.350000000
C    -2.534000000    -5.961000000    -1.284000000
C    -1.614000000    -6.373000000    -2.258000000
H    -1.394000000    -7.437000000    -2.280000000
C    -1.075000000    -5.498000000    -3.173000000
O    -0.133000000    -5.943000000    -4.003000000
C     0.884000000    -5.217000000    -4.502000000
C     1.184000000    -5.470000000    -5.769000000
H     0.573000000    -6.161000000    -6.343000000
C     2.145000000    -4.742000000    -6.407000000
H     2.390000000    -4.891000000    -7.455000000
C     2.910000000    -3.794000000    -5.749000000
H     3.603000000    -3.146000000    -6.279000000
C     2.752000000    -3.668000000    -4.366000000
C     1.684000000    -4.312000000    -3.722000000
H     1.539000000    -4.174000000    -2.654000000
O     6.344000000    -3.522000000     6.567000000
H     5.543000000    -3.503000000     6.044000000
H     6.524000000    -2.603000000     6.764000000
O     8.016000000    -3.285000000     3.642000000
H     7.856000000    -3.395000000     2.705000000
H     7.202000000    -2.915000000     3.983000000
O     3.386000000    -3.407000000     5.966000000
H     3.461000000    -3.498000000     5.016000000
H     2.519000000    -3.026000000     6.103000000
O     6.279000000    -6.833000000    -0.539000000
H     6.972000000    -7.337000000    -0.113000000
H     5.526000000    -6.919000000     0.045000000
O     2.622000000    -5.940000000     8.379000000
H     3.001000000    -6.793000000     8.592000000
H     2.615000000    -5.912000000     7.422000000
O     5.632000000    -2.021000000     4.050000000
H     4.853000000    -2.408000000     3.649000000
H     5.848000000    -1.280000000     3.484000000
O     7.935000000    -4.023000000    -0.354000000
H     7.341000000    -4.067000000     0.395000000
H     7.504000000    -4.542000000    -1.033000000
O     4.586000000    -6.614000000     1.679000000
H     4.686000000    -7.471000000     2.094000000
H     3.654000000    -6.415000000     1.762000000
O     3.571000000    -7.152000000     5.769000000
H     2.890000000    -7.496000000     5.191000000
H     4.091000000    -6.575000000     5.210000000
O     2.359000000    -6.151000000    -0.989000000
H     1.807000000    -6.550000000    -0.316000000
H     2.356000000    -6.784000000    -1.707000000
O     1.398000000    -6.595000000     4.228000000
H     0.577000000    -6.821000000     3.790000000
H     1.800000000    -5.938000000     3.659000000
O     7.480000000    -6.918000000     3.027000000
H     6.898000000    -7.530000000     2.575000000
H     6.906000000    -6.206000000     3.309000000
O     4.592000000    -1.269000000     0.059000000
H     4.531000000    -1.592000000    -0.840000000
H     3.790000000    -1.579000000     0.480000000
O     5.574000000    -5.598000000     4.521000000
H     5.000000000    -4.901000000     4.204000000
H     6.156000000    -5.164000000     5.144000000
O     4.045000000    -3.875000000    -0.789000000
H     4.567000000    -4.045000000    -0.005000000
H     3.284000000    -4.449000000    -0.699000000
O     0.344000000    -7.689000000     6.549000000
H     0.812000000    -7.433000000     5.754000000
H    -0.507000000    -7.996000000     6.238000000
O     0.970000000    -7.098000000     1.136000000
H     1.218000000    -6.292000000     1.589000000
H     0.821000000    -7.731000000     1.837000000
O     5.644000000    -4.195000000     1.677000000
H     5.664000000    -5.151000000     1.721000000
H     5.025000000    -3.937000000     2.360000000
O     6.305000000    -0.325000000     2.083000000
H     6.829000000     0.403000000     1.749000000
H     5.760000000    -0.589000000     1.342000000
