201
-1252.13061
C     3.955000000     2.046000000     0.832000000
H     3.234000000     2.579000000     1.447000000
C     3.826000000     2.031000000    -0.537000000
C     4.774000000     1.321000000    -1.335000000
H     4.676000000     1.279000000    -2.417000000
C     2.642000000     2.750000000    -1.243000000
O     2.451000000     4.101000000    -0.736000000
H     1.704000000     2.212000000    -1.042000000
O     2.867000000     2.901000000    -2.607000000
C     1.865000000     2.511000000    -3.379000000
C     2.010000000     1.289000000    -4.038000000
H     2.949000000     0.748000000    -3.952000000
C     0.892000000     0.799000000    -4.689000000
O     0.996000000    -0.542000000    -4.966000000
C    -0.306000000     1.567000000    -4.855000000
C    -1.574000000     0.900000000    -5.447000000
H    -2.217000000     1.679000000    -5.862000000
C    -2.355000000     0.166000000    -4.392000000
C    -3.367000000     0.836000000    -3.752000000
H    -3.723000000     1.841000000    -3.965000000
H    -1.293000000     0.220000000    -6.255000000
C    -0.374000000     2.820000000    -4.281000000
H    -1.158000000     3.503000000    -4.596000000
C     0.709000000     3.290000000    -3.544000000
C     0.646000000     4.700000000    -2.962000000
H     0.007000000     5.329000000    -3.586000000
H     1.606000000     5.219000000    -3.000000000
C     0.237000000     4.690000000    -1.501000000
C    -1.099000000     4.954000000    -1.171000000
H    -1.814000000     4.944000000    -1.989000000
C     1.179000000     4.413000000    -0.456000000
C     0.763000000     4.478000000     0.880000000
H     1.506000000     4.369000000     1.666000000
C    -0.563000000     4.668000000     1.213000000
O    -0.985000000     4.588000000     2.516000000
C    -1.580000000     3.321000000     2.879000000
C    -1.075000000     2.731000000     4.171000000
C    -1.978000000     1.979000000     4.953000000
H    -3.033000000     1.928000000     4.693000000
C     0.216000000     2.882000000     4.677000000
H     1.006000000     3.331000000     4.080000000
O    -2.997000000     3.372000000     2.813000000
H    -1.253000000     2.566000000     2.149000000
C    -1.558000000     4.814000000     0.148000000
C    -3.034000000     4.895000000     0.412000000
H    -3.506000000     5.384000000    -0.443000000
H    -3.138000000     5.515000000     1.305000000
C    -3.669000000     3.546000000     0.571000000
C    -4.153000000     2.910000000    -0.578000000
H    -4.206000000     3.482000000    -1.501000000
C    -3.551000000     2.799000000     1.757000000
C    -3.831000000     1.455000000     1.754000000
H    -3.535000000     0.825000000     2.589000000
C    -4.364000000     0.842000000     0.656000000
O    -4.494000000    -0.498000000     0.784000000
C    -3.562000000    -1.406000000     0.056000000
C    -3.224000000    -2.570000000     0.988000000
C    -3.625000000    -2.528000000     2.317000000
H    -4.445000000    -1.875000000     2.605000000
C    -2.386000000    -3.596000000     0.542000000
H    -1.883000000    -3.617000000    -0.421000000
O    -4.167000000    -1.818000000    -1.208000000
H    -2.550000000    -1.026000000    -0.148000000
C    -4.517000000     1.558000000    -0.555000000
C    -5.060000000     0.866000000    -1.805000000
H    -5.636000000     1.581000000    -2.395000000
H    -5.853000000     0.153000000    -1.570000000
C    -4.010000000     0.191000000    -2.639000000
C    -3.689000000    -1.163000000    -2.380000000
C    -2.805000000    -1.864000000    -3.125000000
H    -2.594000000    -2.903000000    -2.887000000
C    -2.075000000    -1.178000000    -4.105000000
O    -1.036000000    -1.803000000    -4.725000000
C     0.304000000    -1.520000000    -4.177000000
H     0.032000000    -1.136000000    -3.183000000
C     1.198000000    -2.759000000    -4.044000000
C     2.568000000    -2.625000000    -3.883000000
H     3.118000000    -1.691000000    -3.798000000
C     0.573000000    -3.995000000    -3.785000000
H    -0.498000000    -4.150000000    -3.681000000
C     1.391000000    -5.128000000    -3.550000000
O     0.806000000    -6.395000000    -3.295000000
C     2.806000000    -5.014000000    -3.468000000
H     3.376000000    -5.939000000    -3.418000000
C     3.363000000    -3.760000000    -3.647000000
O     4.710000000    -3.742000000    -3.454000000
C     5.412000000    -2.590000000    -3.587000000
C     5.670000000    -1.816000000    -2.515000000
H     5.124000000    -1.952000000    -1.586000000
C     5.959000000    -2.337000000    -4.795000000
H     5.773000000    -2.859000000    -5.730000000
C     6.812000000    -1.245000000    -4.928000000
H     7.178000000    -1.005000000    -5.923000000
C     7.131000000    -0.430000000    -3.860000000
H     7.772000000     0.419000000    -4.082000000
C     6.550000000    -0.755000000    -2.602000000
O     6.859000000     0.046000000    -1.488000000
C     5.863000000     0.706000000    -0.761000000
C     5.884000000     0.652000000     0.579000000
H     6.669000000     0.089000000     1.078000000
C     4.936000000     1.271000000     1.387000000
O     5.046000000     1.053000000     2.776000000
C     4.625000000     1.986000000     3.642000000
C     3.409000000     1.831000000     4.281000000
H     2.737000000     1.032000000     3.975000000
C     5.527000000     2.929000000     4.229000000
H     6.537000000     3.103000000     3.869000000
C     5.212000000     3.678000000     5.348000000
H     5.826000000     4.521000000     5.656000000
C     3.960000000     3.511000000     5.934000000
H     3.632000000     4.106000000     6.782000000
C     3.065000000     2.549000000     5.463000000
O     1.926000000     2.380000000     6.192000000
C     0.599000000     2.299000000     5.795000000
C    -0.210000000     1.456000000     6.502000000
H     0.259000000     0.970000000     7.353000000
C    -1.579000000     1.373000000     6.132000000
O    -2.470000000     0.628000000     6.888000000
C    -3.436000000    -0.318000000     6.408000000
C    -3.017000000    -1.448000000     5.646000000
H    -1.967000000    -1.588000000     5.401000000
C    -4.742000000    -0.147000000     6.794000000
H    -4.933000000     0.704000000     7.442000000
C    -5.733000000    -1.044000000     6.357000000
H    -6.735000000    -1.021000000     6.779000000
C    -5.325000000    -2.137000000     5.582000000
H    -5.974000000    -2.874000000     5.118000000
C    -3.995000000    -2.308000000     5.201000000
O    -3.647000000    -3.468000000     4.495000000
C    -3.166000000    -3.508000000     3.190000000
C    -2.420000000    -4.597000000     2.799000000
H    -2.143000000    -5.362000000     3.520000000
C    -1.999000000    -4.617000000     1.458000000
O    -1.038000000    -5.569000000     1.054000000
C    -1.090000000    -6.216000000    -0.168000000
C    -2.102000000    -7.167000000    -0.380000000
H    -2.869000000    -7.245000000     0.386000000
C    -2.073000000    -7.872000000    -1.634000000
H    -2.837000000    -8.625000000    -1.813000000
C    -1.247000000    -7.511000000    -2.651000000
H    -1.372000000    -8.045000000    -3.589000000
C    -0.189000000    -6.618000000    -2.332000000
C    -0.073000000    -5.973000000    -1.115000000
H     0.835000000    -5.408000000    -0.921000000
O     5.160000000    -3.247000000     1.337000000
H     4.727000000    -3.995000000     0.925000000
H     4.460000000    -2.797000000     1.812000000
O     1.840000000    -6.833000000     1.478000000
H     1.844000000    -6.106000000     2.100000000
H     0.960000000    -7.203000000     1.547000000
O     6.244000000    -5.428000000     2.950000000
H     5.910000000    -4.698000000     3.472000000
H     6.489000000    -5.031000000     2.114000000
O     6.369000000    -3.541000000     7.348000000
H     6.001000000    -4.421000000     7.273000000
H     5.830000000    -3.112000000     8.013000000
O     4.768000000    -4.016000000     4.746000000
H     5.092000000    -3.485000000     5.473000000
H     4.178000000    -3.434000000     4.268000000
O     3.922000000    -5.980000000     0.059000000
H     3.104000000    -6.253000000     0.474000000
H     4.225000000    -6.758000000    -0.408000000
O     1.778000000    -4.342000000     6.482000000
H     1.261000000    -3.556000000     6.656000000
H     2.305000000    -4.463000000     7.271000000
O     1.042000000    -1.644000000     6.479000000
H     1.489000000    -1.794000000     5.646000000
H     1.666000000    -1.138000000     6.998000000
O    -0.928000000    -1.438000000     9.002000000
H    -0.489000000    -0.778000000     9.538000000
H    -0.386000000    -1.509000000     8.217000000
O     9.048000000    -0.297000000     3.101000000
H     9.476000000    -0.047000000     2.282000000
H     8.185000000    -0.613000000     2.833000000
O     6.126000000     0.492000000     7.185000000
H     5.583000000    -0.001000000     6.569000000
H     6.584000000     1.132000000     6.640000000
O     2.926000000    -0.573000000     8.504000000
H     2.758000000     0.313000000     8.183000000
H     3.834000000    -0.550000000     8.807000000
O     7.586000000    -3.385000000     0.269000000
H     8.173000000    -3.407000000     1.025000000
H     6.710000000    -3.474000000     0.644000000
O    -0.282000000    -5.550000000     4.950000000
H     0.115000000    -5.154000000     5.726000000
H     0.300000000    -5.306000000     4.231000000
O     6.578000000    -1.462000000     3.118000000
H     6.316000000    -2.302000000     2.741000000
H     5.798000000    -0.912000000     3.041000000
O     8.244000000    -3.031000000     5.348000000
H     7.840000000    -2.559000000     4.620000000
H     7.550000000    -3.099000000     6.004000000
O     3.340000000    -6.265000000     4.928000000
H     2.661000000    -5.894000000     5.493000000
H     3.797000000    -5.503000000     4.572000000
O     4.329000000    -1.073000000     5.632000000
H     4.918000000    -1.005000000     4.880000000
H     3.469000000    -1.243000000     5.249000000
O     1.518000000    -4.310000000     3.258000000
H     1.828000000    -3.659000000     3.889000000
H     1.258000000    -3.797000000     2.493000000
