201
-1223.85085
C     4.957000000     0.645000000    -0.270000000
H     4.714000000     1.423000000     0.450000000
C     4.378000000     0.567000000    -1.555000000
C     4.904000000    -0.382000000    -2.425000000
H     4.652000000    -0.479000000    -3.477000000
C     3.198000000     1.498000000    -1.993000000
O     3.425000000     2.822000000    -1.444000000
H     2.328000000     0.937000000    -1.622000000
O     3.206000000     1.578000000    -3.378000000
C     1.919000000     1.538000000    -3.949000000
C     1.404000000     0.303000000    -4.327000000
H     2.043000000    -0.563000000    -4.181000000
C     0.043000000     0.163000000    -4.664000000
O    -0.419000000    -1.081000000    -4.951000000
C    -0.845000000     1.244000000    -4.600000000
C    -2.362000000     1.132000000    -4.953000000
H    -2.792000000     2.072000000    -5.304000000
C    -3.176000000     0.704000000    -3.669000000
C    -3.927000000     1.655000000    -3.023000000
H    -3.880000000     2.689000000    -3.356000000
H    -2.489000000     0.369000000    -5.723000000
C    -0.357000000     2.480000000    -4.257000000
H    -1.030000000     3.333000000    -4.227000000
C     1.049000000     2.631000000    -3.962000000
C     1.517000000     3.950000000    -3.446000000
H     0.939000000     4.720000000    -3.961000000
H     2.509000000     4.332000000    -3.697000000
C     1.466000000     4.115000000    -1.864000000
C     0.310000000     4.709000000    -1.266000000
H    -0.467000000     5.002000000    -1.967000000
C     2.408000000     3.616000000    -0.980000000
C     2.128000000     3.596000000     0.447000000
H     2.886000000     3.110000000     1.056000000
C     0.930000000     4.129000000     0.838000000
O     0.894000000     3.980000000     2.216000000
C    -0.095000000     3.026000000     2.672000000
C     0.504000000     2.241000000     3.787000000
C    -0.311000000     1.733000000     4.769000000
H    -1.375000000     1.951000000     4.750000000
C     1.920000000     2.151000000     3.839000000
H     2.626000000     2.467000000     3.076000000
O    -1.410000000     3.692000000     2.947000000
H    -0.147000000     2.227000000     1.919000000
C    -0.008000000     4.798000000     0.075000000
C    -1.344000000     5.307000000     0.606000000
H    -1.729000000     6.015000000    -0.131000000
H    -1.234000000     5.797000000     1.575000000
C    -2.353000000     4.171000000     0.826000000
C    -3.282000000     3.899000000    -0.191000000
H    -3.175000000     4.539000000    -1.063000000
C    -2.399000000     3.470000000     2.011000000
C    -3.374000000     2.482000000     2.215000000
H    -3.289000000     1.789000000     3.048000000
C    -4.284000000     2.206000000     1.220000000
O    -5.053000000     1.129000000     1.407000000
C    -4.470000000    -0.036000000     0.867000000
C    -4.243000000    -1.099000000     1.900000000
C    -4.403000000    -0.863000000     3.313000000
H    -4.750000000     0.077000000     3.735000000
C    -3.605000000    -2.256000000     1.457000000
H    -3.164000000    -2.208000000     0.465000000
O    -5.257000000    -0.345000000    -0.264000000
H    -3.424000000     0.094000000     0.553000000
C    -4.279000000     2.912000000     0.019000000
C    -5.237000000     2.446000000    -1.125000000
H    -5.298000000     3.342000000    -1.746000000
H    -6.224000000     2.337000000    -0.671000000
C    -4.644000000     1.362000000    -1.917000000
C    -4.766000000     0.015000000    -1.493000000
C    -4.019000000    -0.962000000    -2.160000000
H    -3.904000000    -1.993000000    -1.836000000
C    -3.223000000    -0.627000000    -3.290000000
O    -2.478000000    -1.567000000    -3.965000000
C    -1.038000000    -1.698000000    -3.874000000
H    -0.681000000    -1.258000000    -2.931000000
C    -0.591000000    -3.174000000    -3.813000000
C     0.730000000    -3.474000000    -4.287000000
H     1.412000000    -2.774000000    -4.763000000
C    -1.269000000    -4.166000000    -3.062000000
H    -2.249000000    -3.880000000    -2.687000000
C    -0.658000000    -5.390000000    -2.817000000
O    -1.323000000    -6.412000000    -2.202000000
C     0.572000000    -5.630000000    -3.337000000
H     0.975000000    -6.638000000    -3.278000000
C     1.316000000    -4.725000000    -4.113000000
O     2.674000000    -5.057000000    -4.354000000
C     3.661000000    -4.215000000    -4.656000000
C     4.419000000    -3.695000000    -3.667000000
H     4.171000000    -4.003000000    -2.654000000
C     3.955000000    -3.904000000    -5.981000000
H     3.400000000    -4.338000000    -6.809000000
C     5.005000000    -3.024000000    -6.270000000
H     5.131000000    -2.783000000    -7.322000000
C     5.726000000    -2.389000000    -5.243000000
H     6.556000000    -1.702000000    -5.388000000
C     5.468000000    -2.801000000    -3.899000000
O     6.182000000    -2.239000000    -2.890000000
C     5.716000000    -1.363000000    -1.941000000
C     6.168000000    -1.396000000    -0.606000000
H     6.883000000    -2.146000000    -0.278000000
C     5.872000000    -0.338000000     0.229000000
O     6.496000000    -0.170000000     1.461000000
C     6.200000000     0.878000000     2.386000000
C     5.153000000     0.698000000     3.277000000
H     4.545000000    -0.199000000     3.193000000
C     6.828000000     2.096000000     2.289000000
H     7.512000000     2.172000000     1.448000000
C     6.577000000     3.081000000     3.261000000
H     7.129000000     4.014000000     3.349000000
C     5.668000000     2.876000000     4.277000000
H     5.654000000     3.601000000     5.088000000
C     4.930000000     1.722000000     4.250000000
O     3.903000000     1.495000000     5.186000000
C     2.538000000     1.722000000     5.025000000
C     1.687000000     1.252000000     6.024000000
H     2.147000000     1.015000000     6.980000000
C     0.325000000     1.295000000     5.905000000
O    -0.348000000     0.914000000     7.012000000
C    -1.695000000     0.651000000     7.050000000
C    -2.244000000    -0.403000000     6.268000000
H    -1.585000000    -0.948000000     5.597000000
C    -2.571000000     1.463000000     7.817000000
H    -2.106000000     2.297000000     8.336000000
C    -3.950000000     1.291000000     7.714000000
H    -4.627000000     1.963000000     8.234000000
C    -4.501000000     0.359000000     6.884000000
H    -5.578000000     0.339000000     6.735000000
C    -3.627000000    -0.584000000     6.205000000
O    -4.079000000    -1.637000000     5.552000000
C    -4.014000000    -1.849000000     4.209000000
C    -3.360000000    -3.022000000     3.777000000
H    -2.919000000    -3.761000000     4.441000000
C    -3.153000000    -3.167000000     2.415000000
O    -2.300000000    -4.158000000     1.977000000
C    -2.664000000    -5.145000000     1.016000000
C    -3.855000000    -5.822000000     1.049000000
H    -4.519000000    -5.592000000     1.878000000
C    -4.148000000    -6.726000000     0.002000000
H    -5.092000000    -7.256000000    -0.101000000
C    -3.303000000    -6.886000000    -1.086000000
H    -3.599000000    -7.578000000    -1.870000000
C    -2.210000000    -6.083000000    -1.172000000
C    -1.793000000    -5.232000000    -0.115000000
H    -0.903000000    -4.609000000    -0.096000000
O     3.058000000    -6.915000000     6.634000000
H     2.157000000    -6.960000000     6.953000000
H     3.129000000    -6.046000000     6.239000000
O     2.244000000    -3.672000000     7.862000000
H     2.156000000    -2.787000000     7.509000000
H     1.697000000    -3.672000000     8.648000000
O    -0.912000000    -6.045000000     6.029000000
H    -0.477000000    -6.788000000     5.610000000
H    -1.834000000    -6.143000000     5.793000000
O     3.067000000    -4.557000000     5.392000000
H     2.685000000    -3.929000000     4.778000000
H     2.760000000    -4.268000000     6.252000000
O     0.074000000    -8.654000000     4.913000000
H     0.101000000    -8.161000000     4.093000000
H     0.396000000    -9.525000000     4.679000000
O     5.338000000    -4.041000000     2.960000000
H     4.523000000    -3.612000000     2.701000000
H     5.080000000    -4.647000000     3.655000000
O     6.809000000    -4.836000000    -0.978000000
H     7.559000000    -4.360000000    -0.620000000
H     6.053000000    -4.474000000    -0.515000000
O    -0.279000000    -7.534000000     2.161000000
H     0.323000000    -7.914000000     1.520000000
H     0.127000000    -6.704000000     2.408000000
O    -2.212000000    -3.180000000     7.962000000
H    -1.668000000    -3.777000000     8.475000000
H    -1.621000000    -2.830000000     7.295000000
O     3.230000000    -1.393000000     5.334000000
H     2.660000000    -1.963000000     4.817000000
H     3.108000000    -0.524000000     4.953000000
O     7.028000000    -4.669000000     5.756000000
H     6.632000000    -3.809000000     5.620000000
H     6.490000000    -5.075000000     6.436000000
O     1.835000000    -8.142000000     0.547000000
H     2.632000000    -8.450000000     0.114000000
H     1.991000000    -7.211000000     0.701000000
O     4.759000000    -7.738000000     3.066000000
H     4.372000000    -8.321000000     3.720000000
H     4.405000000    -8.046000000     2.232000000
O     0.096000000    -2.900000000     5.866000000
H    -0.070000000    -3.841000000     5.922000000
H     0.572000000    -2.790000000     5.042000000
O     8.090000000    -3.755000000     2.000000000
H     8.680000000    -3.624000000     2.742000000
H     7.218000000    -3.802000000     2.392000000
O     1.657000000    -5.941000000     3.170000000
H     2.439000000    -6.068000000     3.707000000
H     1.654000000    -5.006000000     2.968000000
O     5.858000000    -2.176000000     5.955000000
H     5.704000000    -1.235000000     5.881000000
H     5.044000000    -2.578000000     5.651000000
O     4.610000000    -8.520000000     0.139000000
H     5.208000000    -8.712000000    -0.583000000
H     4.573000000    -7.564000000     0.172000000
O     4.186000000    -5.620000000     0.880000000
H     4.914000000    -5.676000000     1.499000000
H     3.660000000    -4.885000000     1.194000000
