201
-1262.85127
C     4.342000000     1.341000000     2.122000000
H     3.808000000     2.070000000     2.726000000
C     4.228000000     1.402000000     0.680000000
C     4.948000000     0.500000000    -0.053000000
H     4.955000000     0.502000000    -1.140000000
C     3.259000000     2.311000000     0.016000000
O     3.146000000     3.568000000     0.692000000
H     2.281000000     1.809000000     0.040000000
O     3.643000000     2.587000000    -1.343000000
C     2.686000000     2.594000000    -2.310000000
C     2.586000000     1.440000000    -3.082000000
H     3.333000000     0.662000000    -2.947000000
C     1.570000000     1.355000000    -4.017000000
O     1.486000000     0.137000000    -4.655000000
C     0.572000000     2.349000000    -4.063000000
C    -0.557000000     2.071000000    -4.984000000
H    -0.975000000     2.992000000    -5.394000000
C    -1.696000000     1.296000000    -4.415000000
C    -2.760000000     1.988000000    -3.908000000
H    -2.786000000     3.069000000    -3.799000000
H    -0.245000000     1.613000000    -5.925000000
C     0.720000000     3.548000000    -3.340000000
H    -0.028000000     4.336000000    -3.375000000
C     1.787000000     3.716000000    -2.493000000
C     1.956000000     5.021000000    -1.728000000
H     1.495000000     5.762000000    -2.385000000
H     3.015000000     5.285000000    -1.761000000
C     1.335000000     4.853000000    -0.328000000
C     0.006000000     5.235000000    -0.150000000
H    -0.363000000     5.690000000    -1.066000000
C     1.851000000     4.085000000     0.719000000
C     1.193000000     3.853000000     1.900000000
H     1.561000000     3.281000000     2.748000000
C    -0.175000000     4.164000000     1.972000000
O    -0.701000000     3.871000000     3.198000000
C    -1.383000000     2.661000000     3.197000000
C    -1.093000000     1.926000000     4.555000000
C    -2.051000000     1.003000000     4.957000000
H    -3.010000000     0.963000000     4.447000000
C     0.095000000     1.992000000     5.286000000
H     0.910000000     2.595000000     4.893000000
O    -2.811000000     2.923000000     2.965000000
H    -0.986000000     2.031000000     2.388000000
C    -0.812000000     4.868000000     0.945000000
C    -2.295000000     5.101000000     0.967000000
H    -2.581000000     5.810000000     0.187000000
H    -2.519000000     5.591000000     1.917000000
C    -3.096000000     3.836000000     0.700000000
C    -3.594000000     3.476000000    -0.552000000
H    -3.341000000     4.127000000    -1.386000000
C    -3.291000000     2.856000000     1.717000000
C    -4.008000000     1.670000000     1.426000000
H    -4.141000000     1.008000000     2.278000000
C    -4.462000000     1.349000000     0.135000000
O    -4.997000000     0.082000000    -0.157000000
C    -4.022000000    -0.674000000    -0.884000000
C    -3.856000000    -2.077000000    -0.202000000
C    -4.010000000    -2.259000000     1.193000000
H    -4.282000000    -1.421000000     1.831000000
C    -3.476000000    -3.187000000    -1.034000000
H    -3.324000000    -2.994000000    -2.093000000
O    -4.452000000    -0.791000000    -2.254000000
H    -3.065000000    -0.152000000    -0.737000000
C    -4.313000000     2.368000000    -0.862000000
C    -4.673000000     2.121000000    -2.297000000
H    -4.943000000     3.010000000    -2.871000000
H    -5.584000000     1.521000000    -2.246000000
C    -3.666000000     1.295000000    -3.057000000
C    -3.681000000    -0.103000000    -3.047000000
C    -2.717000000    -0.806000000    -3.826000000
H    -2.788000000    -1.889000000    -3.879000000
C    -1.650000000    -0.091000000    -4.337000000
O    -0.538000000    -0.746000000    -4.906000000
C     0.636000000    -0.899000000    -4.152000000
H     0.363000000    -0.745000000    -3.098000000
C     1.281000000    -2.234000000    -4.304000000
C     2.645000000    -2.349000000    -4.238000000
H     3.225000000    -1.431000000    -4.186000000
C     0.413000000    -3.359000000    -4.385000000
H    -0.661000000    -3.203000000    -4.447000000
C     1.046000000    -4.608000000    -4.298000000
O     0.300000000    -5.795000000    -4.109000000
C     2.436000000    -4.695000000    -4.230000000
H     2.993000000    -5.619000000    -4.360000000
C     3.228000000    -3.586000000    -4.147000000
O     4.587000000    -3.653000000    -4.039000000
C     5.410000000    -2.715000000    -3.407000000
C     5.523000000    -2.478000000    -2.085000000
H     5.061000000    -3.217000000    -1.435000000
C     6.214000000    -1.867000000    -4.233000000
H     6.065000000    -1.993000000    -5.302000000
C     7.116000000    -0.929000000    -3.732000000
H     7.800000000    -0.446000000    -4.425000000
C     7.293000000    -0.839000000    -2.349000000
H     8.005000000    -0.142000000    -1.916000000
C     6.434000000    -1.586000000    -1.536000000
O     6.568000000    -1.387000000    -0.151000000
C     5.827000000    -0.402000000     0.582000000
C     5.862000000    -0.465000000     1.939000000
H     6.401000000    -1.239000000     2.479000000
C     5.133000000     0.367000000     2.719000000
O     5.249000000     0.137000000     4.076000000
C     4.557000000     0.947000000     5.006000000
C     3.287000000     0.737000000     5.401000000
H     2.763000000    -0.002000000     4.801000000
C     5.364000000     1.794000000     5.798000000
H     6.407000000     1.830000000     5.494000000
C     4.849000000     2.579000000     6.805000000
H     5.463000000     3.331000000     7.294000000
C     3.542000000     2.366000000     7.163000000
H     3.114000000     2.971000000     7.958000000
C     2.772000000     1.438000000     6.467000000
O     1.518000000     1.168000000     7.001000000
C     0.322000000     1.142000000     6.364000000
C    -0.677000000     0.156000000     6.744000000
H    -0.392000000    -0.473000000     7.583000000
C    -1.849000000     0.104000000     6.021000000
O    -2.838000000    -0.729000000     6.560000000
C    -3.777000000    -1.308000000     5.790000000
C    -3.408000000    -2.047000000     4.629000000
H    -2.411000000    -2.218000000     4.232000000
C    -5.084000000    -1.109000000     6.090000000
H    -5.326000000    -0.610000000     7.025000000
C    -6.025000000    -1.770000000     5.369000000
H    -7.015000000    -1.772000000     5.818000000
C    -5.713000000    -2.619000000     4.326000000
H    -6.496000000    -3.191000000     3.835000000
C    -4.411000000    -2.799000000     3.934000000
O    -4.100000000    -3.834000000     3.014000000
C    -3.910000000    -3.559000000     1.721000000
C    -3.733000000    -4.626000000     0.843000000
H    -3.883000000    -5.628000000     1.238000000
C    -3.580000000    -4.494000000    -0.507000000
O    -3.488000000    -5.666000000    -1.245000000
C    -2.927000000    -5.821000000    -2.529000000
C    -3.742000000    -6.086000000    -3.632000000
H    -4.806000000    -6.138000000    -3.417000000
C    -3.240000000    -6.237000000    -4.877000000
H    -3.859000000    -6.411000000    -5.753000000
C    -1.845000000    -6.067000000    -4.953000000
H    -1.368000000    -6.196000000    -5.921000000
C    -1.063000000    -5.811000000    -3.886000000
C    -1.527000000    -5.752000000    -2.610000000
H    -0.895000000    -5.595000000    -1.740000000
O    -0.327000000    -3.494000000     0.872000000
H     0.304000000    -3.779000000     0.211000000
H     0.004000000    -2.646000000     1.168000000
O     1.379000000    -4.014000000    -1.193000000
H     1.582000000    -3.308000000    -1.807000000
H     2.202000000    -4.172000000    -0.730000000
O    -0.994000000    -6.018000000     2.163000000
H    -0.660000000    -6.663000000     1.539000000
H    -0.787000000    -5.172000000     1.766000000
O     3.430000000    -1.463000000     8.907000000
H     2.971000000    -0.848000000     8.335000000
H     3.856000000    -2.076000000     8.307000000
O     6.620000000    -1.722000000     5.704000000
H     6.771000000    -2.602000000     6.048000000
H     5.736000000    -1.756000000     5.338000000
O     2.489000000    -5.587000000     4.930000000
H     1.635000000    -5.171000000     5.048000000
H     3.079000000    -4.865000000     4.715000000
O     6.603000000    -4.370000000     6.187000000
H     6.151000000    -4.704000000     5.411000000
H     7.516000000    -4.630000000     6.062000000
O     0.659000000    -6.693000000    -0.392000000
H     1.603000000    -6.557000000    -0.316000000
H     0.367000000    -6.012000000    -0.997000000
O    -0.346000000    -4.898000000     4.738000000
H    -1.161000000    -5.080000000     5.206000000
H    -0.444000000    -5.353000000     3.901000000
O     3.474000000    -4.517000000     0.595000000
H     3.770000000    -3.752000000     1.088000000
H     4.075000000    -5.216000000     0.855000000
O     0.918000000    -3.484000000     6.636000000
H     0.383000000    -3.873000000     5.944000000
H     1.746000000    -3.271000000     6.206000000
O     8.726000000    -0.148000000     4.657000000
H     7.909000000    -0.574000000     4.913000000
H     8.450000000     0.660000000     4.226000000
O     8.051000000    -3.470000000     2.998000000
H     7.203000000    -3.562000000     3.432000000
H     8.240000000    -4.343000000     2.653000000
O     5.423000000    -6.550000000     1.156000000
H     5.684000000    -7.424000000     1.445000000
H     6.244000000    -6.060000000     1.105000000
O     0.685000000    -8.248000000     3.396000000
H     0.356000000    -7.358000000     3.270000000
H     0.824000000    -8.321000000     4.340000000
O     2.948000000    -7.274000000     7.298000000
H     2.987000000    -6.830000000     6.450000000
H     2.292000000    -7.961000000     7.179000000
O     5.381000000    -4.967000000     3.973000000
H     4.945000000    -5.755000000     3.648000000
H     4.987000000    -4.252000000     3.472000000
O     4.131000000    -3.239000000     6.908000000
H     3.692000000    -3.005000000     6.090000000
H     4.892000000    -3.752000000     6.632000000
O     3.989000000    -7.420000000     3.864000000
H     3.599000000    -7.947000000     3.167000000
H     3.252000000    -6.937000000     4.240000000
