201
-1263.08861
C     4.691000000     1.087000000     2.303000000
H     4.131000000     1.975000000     2.583000000
C     4.664000000     0.903000000     0.937000000
C     5.343000000    -0.221000000     0.477000000
H     5.325000000    -0.352000000    -0.602000000
C     3.756000000     1.750000000     0.031000000
O     3.615000000     3.077000000     0.589000000
H     2.791000000     1.226000000    -0.025000000
O     4.286000000     1.846000000    -1.333000000
C     3.385000000     1.906000000    -2.363000000
C     3.239000000     0.761000000    -3.125000000
H     3.881000000    -0.082000000    -2.885000000
C     2.303000000     0.664000000    -4.119000000
O     1.992000000    -0.611000000    -4.608000000
C     1.428000000     1.778000000    -4.330000000
C     0.281000000     1.647000000    -5.338000000
H    -0.050000000     2.583000000    -5.792000000
C    -0.954000000     1.107000000    -4.689000000
C    -1.950000000     2.029000000    -4.238000000
H    -1.876000000     3.062000000    -4.568000000
H     0.606000000     1.147000000    -6.253000000
C     1.538000000     2.842000000    -3.554000000
H     0.867000000     3.656000000    -3.817000000
C     2.505000000     2.951000000    -2.519000000
C     2.616000000     4.252000000    -1.766000000
H     2.397000000     5.081000000    -2.442000000
H     3.663000000     4.509000000    -1.589000000
C     1.853000000     4.257000000    -0.534000000
C     0.551000000     4.805000000    -0.547000000
H     0.145000000     5.197000000    -1.476000000
C     2.426000000     3.739000000     0.632000000
C     1.675000000     3.785000000     1.817000000
H     2.107000000     3.194000000     2.620000000
C     0.368000000     4.315000000     1.802000000
O    -0.474000000     4.126000000     2.920000000
C    -1.280000000     3.023000000     2.925000000
C    -1.164000000     2.246000000     4.214000000
C    -2.144000000     1.346000000     4.554000000
H    -3.133000000     1.420000000     4.110000000
C    -0.091000000     2.361000000     5.014000000
H     0.625000000     3.166000000     4.871000000
O    -2.671000000     3.299000000     2.596000000
H    -0.890000000     2.327000000     2.168000000
C    -0.207000000     4.843000000     0.632000000
C    -1.676000000     5.286000000     0.554000000
H    -1.873000000     5.962000000    -0.281000000
H    -1.970000000     5.756000000     1.494000000
C    -2.569000000     4.085000000     0.283000000
C    -2.935000000     3.854000000    -1.050000000
H    -2.514000000     4.518000000    -1.801000000
C    -3.054000000     3.201000000     1.259000000
C    -3.966000000     2.168000000     0.937000000
H    -4.401000000     1.543000000     1.713000000
C    -4.190000000     1.937000000    -0.409000000
O    -4.864000000     0.766000000    -0.642000000
C    -4.045000000    -0.292000000    -1.112000000
C    -4.447000000    -1.640000000    -0.533000000
C    -4.932000000    -1.640000000     0.780000000
H    -5.052000000    -0.735000000     1.371000000
C    -4.155000000    -2.834000000    -1.189000000
H    -3.637000000    -2.756000000    -2.141000000
O    -4.186000000    -0.367000000    -2.573000000
H    -3.010000000    -0.179000000    -0.757000000
C    -3.741000000     2.807000000    -1.431000000
C    -3.951000000     2.477000000    -2.892000000
H    -3.847000000     3.473000000    -3.328000000
H    -4.998000000     2.223000000    -3.071000000
C    -2.965000000     1.500000000    -3.487000000
C    -3.190000000     0.142000000    -3.320000000
C    -2.314000000    -0.787000000    -3.901000000
H    -2.409000000    -1.865000000    -3.794000000
C    -1.132000000    -0.291000000    -4.500000000
O    -0.272000000    -1.260000000    -4.837000000
C     0.897000000    -1.373000000    -3.989000000
H     0.726000000    -0.746000000    -3.101000000
C     1.264000000    -2.849000000    -3.764000000
C     2.527000000    -3.198000000    -3.221000000
H     3.214000000    -2.393000000    -2.972000000
C     0.341000000    -3.858000000    -3.970000000
H    -0.645000000    -3.519000000    -4.278000000
C     0.636000000    -5.189000000    -3.593000000
O    -0.214000000    -6.218000000    -3.708000000
C     1.868000000    -5.490000000    -2.986000000
H     1.981000000    -6.518000000    -2.650000000
C     2.828000000    -4.528000000    -2.842000000
O     3.946000000    -4.857000000    -2.079000000
C     5.041000000    -4.025000000    -1.922000000
C     5.362000000    -3.516000000    -0.670000000
H     4.857000000    -3.834000000     0.239000000
C     5.772000000    -3.579000000    -3.042000000
H     5.546000000    -3.854000000    -4.070000000
C     6.827000000    -2.689000000    -2.967000000
H     7.407000000    -2.356000000    -3.825000000
C     7.203000000    -2.206000000    -1.670000000
H     8.004000000    -1.501000000    -1.460000000
C     6.442000000    -2.638000000    -0.524000000
O     6.762000000    -2.136000000     0.725000000
C     6.019000000    -1.094000000     1.272000000
C     5.920000000    -0.950000000     2.656000000
H     6.337000000    -1.653000000     3.372000000
C     5.252000000     0.167000000     3.156000000
O     5.178000000     0.305000000     4.544000000
C     4.490000000     1.251000000     5.198000000
C     3.230000000     0.998000000     5.699000000
H     2.744000000     0.030000000     5.613000000
C     5.029000000     2.506000000     5.462000000
H     6.049000000     2.650000000     5.116000000
C     4.306000000     3.498000000     6.180000000
H     4.740000000     4.471000000     6.399000000
C     2.988000000     3.216000000     6.569000000
H     2.328000000     3.972000000     6.985000000
C     2.493000000     1.927000000     6.428000000
O     1.286000000     1.568000000     6.911000000
C     0.098000000     1.538000000     6.144000000
C    -0.877000000     0.532000000     6.442000000
H    -0.668000000    -0.249000000     7.169000000
C    -1.978000000     0.393000000     5.600000000
O    -2.930000000    -0.587000000     5.899000000
C    -4.177000000    -0.817000000     5.348000000
C    -4.317000000    -1.636000000     4.232000000
H    -3.441000000    -2.173000000     3.879000000
C    -5.282000000    -0.111000000     5.786000000
H    -5.178000000     0.686000000     6.518000000
C    -6.520000000    -0.215000000     5.157000000
H    -7.321000000     0.453000000     5.464000000
C    -6.690000000    -1.164000000     4.100000000
H    -7.667000000    -1.271000000     3.636000000
C    -5.558000000    -1.841000000     3.590000000
O    -5.719000000    -2.830000000     2.656000000
C    -5.251000000    -2.862000000     1.403000000
C    -4.979000000    -4.082000000     0.758000000
H    -5.237000000    -5.017000000     1.249000000
C    -4.532000000    -4.046000000    -0.589000000
O    -4.156000000    -5.222000000    -1.257000000
C    -3.552000000    -5.257000000    -2.471000000
C    -4.185000000    -4.866000000    -3.662000000
H    -5.252000000    -4.659000000    -3.674000000
C    -3.560000000    -5.124000000    -4.929000000
H    -4.159000000    -5.051000000    -5.833000000
C    -2.252000000    -5.730000000    -4.909000000
H    -1.765000000    -5.896000000    -5.867000000
C    -1.575000000    -5.969000000    -3.704000000
C    -2.294000000    -5.762000000    -2.482000000
H    -1.814000000    -5.969000000    -1.529000000
O    -0.794000000    -3.545000000     1.913000000
H    -0.560000000    -2.844000000     1.304000000
H    -0.248000000    -4.285000000     1.647000000
O    -0.635000000    -6.641000000     0.444000000
H    -0.686000000    -7.532000000     0.099000000
H     0.299000000    -6.434000000     0.438000000
O     0.065000000    -2.833000000     4.583000000
H     0.919000000    -3.147000000     4.285000000
H    -0.505000000    -2.930000000     3.820000000
O     5.904000000    -1.104000000     7.060000000
H     5.458000000    -1.932000000     7.232000000
H     6.073000000    -1.115000000     6.118000000
O     2.975000000    -1.094000000     8.188000000
H     3.705000000    -0.749000000     7.673000000
H     2.754000000    -1.923000000     7.763000000
O     4.966000000    -3.673000000     7.716000000
H     4.136000000    -3.867000000     7.281000000
H     5.561000000    -4.359000000     7.414000000
O     2.173000000    -6.748000000     3.793000000
H     3.077000000    -6.854000000     3.496000000
H     2.123000000    -5.840000000     4.091000000
O     5.952000000    -6.058000000     6.476000000
H     5.263000000    -6.704000000     6.319000000
H     6.754000000    -6.487000000     6.178000000
O    -0.725000000    -2.620000000     7.190000000
H    -1.665000000    -2.751000000     7.064000000
H    -0.374000000    -2.534000000     6.304000000
O     9.009000000    -3.728000000     4.834000000
H     8.083000000    -3.868000000     4.636000000
H     9.266000000    -4.499000000     5.339000000
O    -2.715000000    -5.772000000     2.225000000
H    -2.156000000    -6.096000000     1.518000000
H    -2.539000000    -4.831000000     2.257000000
O     2.317000000    -6.378000000     0.510000000
H     2.445000000    -5.763000000     1.233000000
H     3.116000000    -6.904000000     0.500000000
O     2.353000000    -3.424000000     6.736000000
H     2.344000000    -3.387000000     5.780000000
H     1.451000000    -3.633000000     6.977000000
O     7.339000000    -5.134000000     1.956000000
H     6.622000000    -5.712000000     1.695000000
H     7.010000000    -4.679000000     2.731000000
O     4.751000000    -8.269000000     0.429000000
H     5.634000000    -8.220000000     0.062000000
H     4.507000000    -9.191000000     0.342000000
O    -0.330000000    -8.241000000     3.778000000
H     0.321000000    -7.601000000     3.491000000
H    -1.166000000    -7.780000000     3.712000000
O     3.914000000    -7.796000000     5.881000000
H     3.190000000    -7.640000000     5.275000000
H     3.490000000    -8.051000000     6.701000000
O     4.859000000    -6.941000000     2.698000000
H     4.691000000    -7.383000000     1.866000000
H     4.548000000    -6.046000000     2.561000000
O     5.982000000    -4.181000000     4.465000000
H     5.093000000    -4.312000000     4.133000000
H     6.064000000    -4.808000000     5.184000000
