201
-1228.38225
C     4.041000000     2.880000000    -0.394000000
H     3.276000000     3.583000000    -0.073000000
C     3.798000000     2.076000000    -1.517000000
C     4.696000000     1.052000000    -1.875000000
H     4.378000000     0.368000000    -2.657000000
C     2.521000000     2.309000000    -2.339000000
O     2.279000000     3.736000000    -2.317000000
H     1.692000000     1.805000000    -1.820000000
O     2.637000000     1.754000000    -3.658000000
C     1.570000000     1.014000000    -4.016000000
C     1.598000000    -0.385000000    -4.059000000
H     2.565000000    -0.823000000    -3.828000000
C     0.515000000    -1.108000000    -4.434000000
O     0.751000000    -2.453000000    -4.410000000
C    -0.719000000    -0.540000000    -4.769000000
C    -1.965000000    -1.294000000    -5.141000000
H    -2.527000000    -0.761000000    -5.911000000
C    -2.674000000    -1.786000000    -3.872000000
C    -3.577000000    -0.898000000    -3.323000000
H    -3.807000000     0.012000000    -3.872000000
H    -1.398000000    -2.101000000    -5.611000000
C    -0.756000000     0.861000000    -4.808000000
H    -1.662000000     1.354000000    -5.153000000
C     0.333000000     1.639000000    -4.379000000
C     0.254000000     3.179000000    -4.428000000
H    -0.489000000     3.402000000    -5.198000000
H     1.241000000     3.522000000    -4.744000000
C    -0.065000000     3.866000000    -3.088000000
C    -1.417000000     4.005000000    -2.737000000
H    -2.178000000     3.719000000    -3.459000000
C     0.982000000     4.075000000    -2.128000000
C     0.632000000     4.405000000    -0.825000000
H     1.331000000     4.382000000     0.007000000
C    -0.717000000     4.513000000    -0.480000000
O    -1.088000000     4.742000000     0.801000000
C    -1.392000000     3.667000000     1.713000000
C    -0.689000000     3.959000000     3.033000000
C    -1.169000000     3.192000000     4.123000000
H    -1.903000000     2.424000000     3.892000000
C     0.305000000     4.897000000     3.261000000
H     0.712000000     5.455000000     2.422000000
O    -2.828000000     3.739000000     1.890000000
H    -1.061000000     2.730000000     1.243000000
C    -1.747000000     4.300000000    -1.450000000
C    -3.170000000     4.354000000    -1.065000000
H    -3.764000000     4.616000000    -1.943000000
H    -3.356000000     5.162000000    -0.355000000
C    -3.615000000     3.092000000    -0.400000000
C    -4.098000000     2.109000000    -1.234000000
H    -4.211000000     2.288000000    -2.300000000
C    -3.497000000     2.844000000     1.008000000
C    -3.875000000     1.598000000     1.498000000
H    -3.745000000     1.459000000     2.568000000
C    -4.331000000     0.571000000     0.635000000
O    -4.605000000    -0.670000000     1.174000000
C    -3.718000000    -1.800000000     0.878000000
C    -3.459000000    -2.653000000     2.183000000
C    -3.202000000    -1.980000000     3.351000000
H    -3.386000000    -0.909000000     3.397000000
C    -3.292000000    -4.041000000     2.163000000
H    -3.360000000    -4.561000000     1.211000000
O    -4.342000000    -2.577000000    -0.203000000
H    -2.751000000    -1.410000000     0.526000000
C    -4.519000000     0.813000000    -0.768000000
C    -5.214000000    -0.181000000    -1.679000000
H    -5.613000000     0.321000000    -2.563000000
H    -6.050000000    -0.706000000    -1.212000000
C    -4.159000000    -1.196000000    -2.098000000
C    -3.842000000    -2.424000000    -1.431000000
C    -2.911000000    -3.296000000    -1.907000000
H    -2.661000000    -4.151000000    -1.285000000
C    -2.277000000    -2.951000000    -3.167000000
O    -1.162000000    -3.704000000    -3.544000000
C     0.158000000    -3.162000000    -3.253000000
H     0.097000000    -2.439000000    -2.427000000
C     1.131000000    -4.188000000    -2.635000000
C     2.503000000    -3.953000000    -2.704000000
H     2.958000000    -3.215000000    -3.360000000
C     0.662000000    -5.241000000    -1.832000000
H    -0.415000000    -5.382000000    -1.874000000
C     1.508000000    -6.036000000    -1.027000000
O     1.060000000    -6.983000000    -0.130000000
C     2.858000000    -5.781000000    -1.106000000
H     3.559000000    -6.382000000    -0.533000000
C     3.335000000    -4.846000000    -1.989000000
O     4.673000000    -4.599000000    -1.923000000
C     5.288000000    -3.502000000    -2.479000000
C     5.340000000    -2.290000000    -1.809000000
H     4.790000000    -2.166000000    -0.879000000
C     6.016000000    -3.607000000    -3.616000000
H     5.903000000    -4.515000000    -4.204000000
C     6.924000000    -2.697000000    -4.051000000
H     7.381000000    -2.692000000    -5.037000000
C     7.046000000    -1.486000000    -3.352000000
H     7.708000000    -0.671000000    -3.632000000
C     6.262000000    -1.317000000    -2.182000000
O     6.538000000    -0.237000000    -1.312000000
C     5.794000000     0.835000000    -1.088000000
C     6.036000000     1.609000000     0.067000000
H     6.766000000     1.240000000     0.782000000
C     5.162000000     2.704000000     0.383000000
O     5.281000000     3.339000000     1.649000000
C     4.729000000     4.549000000     2.041000000
C     3.900000000     4.560000000     3.113000000
H     3.948000000     3.692000000     3.766000000
C     4.902000000     5.658000000     1.243000000
H     5.527000000     5.635000000     0.353000000
C     4.158000000     6.793000000     1.570000000
H     4.427000000     7.677000000     0.998000000
C     3.364000000     6.841000000     2.669000000
H     2.845000000     7.769000000     2.896000000
C     3.171000000     5.691000000     3.462000000
O     2.175000000     5.682000000     4.501000000
C     1.011000000     4.964000000     4.471000000
C     0.460000000     4.235000000     5.553000000
H     0.910000000     4.410000000     6.526000000
C    -0.664000000     3.408000000     5.430000000
O    -0.952000000     2.611000000     6.499000000
C    -2.012000000     1.728000000     6.459000000
C    -1.683000000     0.403000000     6.200000000
H    -0.622000000     0.187000000     6.112000000
C    -3.335000000     2.183000000     6.499000000
H    -3.467000000     3.231000000     6.756000000
C    -4.328000000     1.185000000     6.345000000
H    -5.347000000     1.501000000     6.552000000
C    -4.015000000    -0.124000000     6.140000000
H    -4.724000000    -0.948000000     6.122000000
C    -2.686000000    -0.474000000     5.977000000
O    -2.459000000    -1.839000000     5.680000000
C    -2.722000000    -2.591000000     4.466000000
C    -2.551000000    -4.010000000     4.549000000
H    -2.121000000    -4.591000000     5.361000000
C    -2.790000000    -4.681000000     3.317000000
O    -2.316000000    -5.930000000     3.273000000
C    -1.907000000    -6.441000000     2.087000000
C    -2.866000000    -7.231000000     1.370000000
H    -3.896000000    -7.327000000     1.701000000
C    -2.461000000    -7.782000000     0.155000000
H    -3.258000000    -8.237000000    -0.429000000
C    -1.157000000    -7.677000000    -0.327000000
H    -0.940000000    -8.194000000    -1.258000000
C    -0.220000000    -6.982000000     0.386000000
C    -0.567000000    -6.387000000     1.616000000
H     0.167000000    -5.993000000     2.315000000
O     1.853000000    -1.352000000     4.426000000
H     2.595000000    -0.787000000     4.209000000
H     1.377000000    -1.448000000     3.601000000
O     3.955000000    -3.488000000     6.086000000
H     4.496000000    -2.874000000     5.589000000
H     3.069000000    -3.353000000     5.748000000
O     5.780000000    -1.752000000     5.059000000
H     5.064000000    -1.424000000     4.514000000
H     6.497000000    -1.906000000     4.444000000
O     4.541000000    -5.317000000     8.086000000
H     5.387000000    -5.524000000     7.688000000
H     4.077000000    -4.816000000     7.415000000
O     7.614000000     3.709000000     4.235000000
H     6.786000000     3.747000000     3.756000000
H     8.204000000     4.276000000     3.738000000
O     8.214000000    -2.717000000     6.713000000
H     7.754000000    -2.661000000     5.875000000
H     8.613000000    -3.587000000     6.709000000
O     8.713000000    -5.620000000     2.099000000
H     8.462000000    -6.518000000     2.312000000
H     7.887000000    -5.182000000     1.894000000
O     1.798000000    -1.035000000     7.459000000
H     1.995000000    -0.784000000     6.557000000
H     1.220000000    -1.794000000     7.375000000
O     1.118000000    -4.723000000     4.969000000
H     0.933000000    -5.661000000     5.007000000
H     0.749000000    -4.373000000     5.780000000
O     9.516000000    -2.185000000     0.771000000
H     9.396000000    -1.324000000     0.370000000
H    10.208000000    -2.053000000     1.419000000
O     2.502000000    -4.383000000     2.711000000
H     1.843000000    -4.295000000     3.399000000
H     2.882000000    -3.508000000     2.631000000
O     7.612000000    -2.641000000     3.133000000
H     6.903000000    -3.119000000     2.704000000
H     8.146000000    -2.306000000     2.413000000
O     6.422000000    -0.879000000     7.844000000
H     7.237000000    -1.375000000     7.769000000
H     5.971000000    -1.033000000     7.013000000
O     5.284000000    -6.486000000     4.320000000
H     6.218000000    -6.395000000     4.510000000
H     4.869000000    -6.547000000     5.180000000
O     3.187000000     2.143000000     6.434000000
H     3.888000000     1.852000000     5.850000000
H     2.450000000     2.323000000     5.851000000
O     6.992000000    -5.253000000    -0.640000000
H     6.143000000    -5.477000000    -1.022000000
H     6.797000000    -5.054000000     0.276000000
O     2.805000000    -7.143000000     3.097000000
H     2.632000000    -6.286000000     2.706000000
H     3.723000000    -7.102000000     3.366000000
O     5.619000000    -4.690000000     1.934000000
H     5.175000000    -3.854000000     1.794000000
H     5.049000000    -5.166000000     2.537000000
O     4.853000000     1.378000000     4.656000000
H     4.558000000     0.774000000     3.974000000
H     5.808000000     1.321000000     4.628000000
