201
-1274.79641
C     4.782000000     2.158000000    -0.438000000
H     4.238000000     2.964000000     0.047000000
C     4.279000000     1.626000000    -1.610000000
C     4.984000000     0.569000000    -2.257000000
H     4.598000000     0.073000000    -3.144000000
C     3.039000000     2.221000000    -2.177000000
O     2.900000000     3.623000000    -1.817000000
H     2.206000000     1.625000000    -1.777000000
O     2.973000000     2.131000000    -3.614000000
C     1.794000000     1.792000000    -4.189000000
C     1.596000000     0.437000000    -4.478000000
H     2.369000000    -0.269000000    -4.186000000
C     0.361000000    -0.086000000    -4.738000000
O     0.184000000    -1.451000000    -4.793000000
C    -0.712000000     0.849000000    -4.873000000
C    -2.082000000     0.320000000    -5.141000000
H    -2.752000000     1.067000000    -5.571000000
C    -2.737000000    -0.130000000    -3.756000000
C    -3.673000000     0.727000000    -3.145000000
H    -3.877000000     1.695000000    -3.595000000
H    -2.130000000    -0.465000000    -5.899000000
C    -0.545000000     2.198000000    -4.677000000
H    -1.391000000     2.876000000    -4.759000000
C     0.681000000     2.667000000    -4.269000000
C     0.845000000     4.183000000    -3.813000000
H     0.065000000     4.693000000    -4.381000000
H     1.763000000     4.686000000    -4.124000000
C     0.661000000     4.358000000    -2.311000000
C    -0.637000000     4.602000000    -1.804000000
H    -1.432000000     4.800000000    -2.518000000
C     1.707000000     4.074000000    -1.410000000
C     1.594000000     4.202000000    -0.018000000
H     2.465000000     3.997000000     0.600000000
C     0.280000000     4.318000000     0.449000000
O     0.108000000     4.238000000     1.799000000
C    -0.691000000     3.190000000     2.354000000
C    -0.046000000     2.681000000     3.659000000
C    -0.777000000     2.076000000     4.701000000
H    -1.846000000     1.899000000     4.613000000
C     1.347000000     2.786000000     3.775000000
H     1.890000000     3.222000000     2.941000000
O    -2.019000000     3.693000000     2.671000000
H    -0.768000000     2.289000000     1.728000000
C    -0.832000000     4.754000000    -0.405000000
C    -2.207000000     5.049000000     0.120000000
H    -2.743000000     5.525000000    -0.704000000
H    -2.137000000     5.755000000     0.950000000
C    -3.044000000     3.818000000     0.475000000
C    -3.853000000     3.202000000    -0.482000000
H    -3.858000000     3.664000000    -1.466000000
C    -2.992000000     3.242000000     1.788000000
C    -3.686000000     2.085000000     2.065000000
H    -3.489000000     1.447000000     2.923000000
C    -4.448000000     1.514000000     1.025000000
O    -4.882000000     0.228000000     1.400000000
C    -4.068000000    -0.878000000     0.939000000
C    -3.820000000    -2.027000000     1.961000000
C    -4.127000000    -1.846000000     3.327000000
H    -4.566000000    -0.906000000     3.652000000
C    -3.133000000    -3.216000000     1.606000000
H    -2.735000000    -3.298000000     0.598000000
O    -4.623000000    -1.451000000    -0.269000000
H    -3.073000000    -0.501000000     0.659000000
C    -4.546000000     2.069000000    -0.224000000
C    -5.322000000     1.288000000    -1.252000000
H    -5.774000000     1.920000000    -2.020000000
H    -6.166000000     0.709000000    -0.871000000
C    -4.342000000     0.301000000    -1.939000000
C    -4.090000000    -0.993000000    -1.472000000
C    -3.235000000    -1.898000000    -2.146000000
H    -3.115000000    -2.915000000    -1.783000000
C    -2.468000000    -1.386000000    -3.206000000
O    -1.729000000    -2.384000000    -3.866000000
C    -0.293000000    -2.219000000    -3.731000000
H     0.065000000    -1.667000000    -2.849000000
C     0.393000000    -3.598000000    -3.545000000
C     1.783000000    -3.648000000    -3.574000000
H     2.354000000    -2.842000000    -4.028000000
C    -0.263000000    -4.712000000    -3.057000000
H    -1.334000000    -4.713000000    -2.871000000
C     0.451000000    -5.829000000    -2.574000000
O    -0.260000000    -6.816000000    -1.924000000
C     1.836000000    -5.852000000    -2.612000000
H     2.395000000    -6.748000000    -2.353000000
C     2.466000000    -4.725000000    -3.055000000
O     3.889000000    -4.808000000    -3.085000000
C     4.620000000    -3.743000000    -3.501000000
C     5.319000000    -2.940000000    -2.582000000
H     5.373000000    -3.200000000    -1.528000000
C     4.735000000    -3.547000000    -4.864000000
H     4.322000000    -4.248000000    -5.585000000
C     5.578000000    -2.535000000    -5.350000000
H     5.842000000    -2.381000000    -6.394000000
C     6.218000000    -1.712000000    -4.440000000
H     6.972000000    -0.975000000    -4.705000000
C     5.986000000    -1.856000000    -3.055000000
O     6.626000000    -1.158000000    -2.054000000
C     6.072000000     0.054000000    -1.580000000
C     6.604000000     0.623000000    -0.412000000
H     7.475000000     0.191000000     0.072000000
C     5.929000000     1.639000000     0.148000000
O     6.481000000     2.166000000     1.340000000
C     5.754000000     2.962000000     2.239000000
C     4.971000000     2.333000000     3.185000000
H     4.894000000     1.249000000     3.215000000
C     5.732000000     4.386000000     2.198000000
H     6.439000000     4.940000000     1.586000000
C     5.018000000     5.108000000     3.098000000
H     5.083000000     6.190000000     3.018000000
C     4.211000000     4.488000000     4.064000000
H     3.647000000     5.140000000     4.726000000
C     4.161000000     3.031000000     4.021000000
O     3.354000000     2.369000000     5.019000000
C     2.001000000     2.216000000     4.901000000
C     1.201000000     1.699000000     5.934000000
H     1.707000000     1.231000000     6.774000000
C    -0.200000000     1.574000000     5.840000000
O    -0.887000000     0.930000000     6.881000000
C    -2.215000000     0.480000000     6.743000000
C    -2.549000000    -0.704000000     6.078000000
H    -1.777000000    -1.185000000     5.484000000
C    -3.098000000     1.089000000     7.615000000
H    -2.851000000     2.015000000     8.128000000
C    -4.332000000     0.501000000     7.796000000
H    -4.987000000     0.901000000     8.566000000
C    -4.635000000    -0.685000000     7.121000000
H    -5.594000000    -1.168000000     7.285000000
C    -3.808000000    -1.277000000     6.214000000
O    -4.069000000    -2.518000000     5.637000000
C    -3.789000000    -2.728000000     4.299000000
C    -3.207000000    -3.915000000     3.899000000
H    -3.107000000    -4.760000000     4.575000000
C    -2.754000000    -4.110000000     2.584000000
O    -2.096000000    -5.286000000     2.237000000
C    -2.264000000    -5.914000000     1.019000000
C    -3.518000000    -6.496000000     0.676000000
H    -4.326000000    -6.323000000     1.382000000
C    -3.656000000    -7.105000000    -0.580000000
H    -4.632000000    -7.539000000    -0.783000000
C    -2.570000000    -7.210000000    -1.468000000
H    -2.578000000    -7.744000000    -2.415000000
C    -1.345000000    -6.649000000    -1.120000000
C    -1.216000000    -6.038000000     0.110000000
H    -0.239000000    -5.718000000     0.462000000
O     0.689000000    -2.105000000     6.384000000
H     1.182000000    -2.865000000     6.694000000
H     0.880000000    -1.419000000     7.023000000
O     0.976000000    -9.074000000     1.045000000
H     1.289000000    -8.193000000     0.840000000
H     0.554000000    -9.371000000     0.239000000
O     7.105000000    -3.339000000     0.820000000
H     6.852000000    -2.452000000     1.074000000
H     7.846000000    -3.549000000     1.388000000
O     2.485000000    -6.992000000     5.400000000
H     2.902000000    -7.836000000     5.226000000
H     2.013000000    -6.787000000     4.593000000
O     8.594000000    -4.463000000    -1.362000000
H     8.165000000    -5.278000000    -1.102000000
H     8.350000000    -3.836000000    -0.682000000
O     4.065000000    -1.602000000     7.781000000
H     3.754000000    -1.987000000     6.962000000
H     4.180000000    -2.349000000     8.369000000
O     7.137000000    -0.887000000     5.039000000
H     7.368000000    -1.796000000     5.231000000
H     6.918000000    -0.511000000     5.891000000
O     2.741000000    -4.129000000     5.813000000
H     2.946000000    -5.038000000     6.034000000
H     2.188000000    -4.191000000     5.034000000
O     5.087000000    -3.752000000     4.363000000
H     4.295000000    -3.876000000     4.886000000
H     4.790000000    -3.270000000     3.590000000
O    -0.667000000    -4.704000000     6.262000000
H     0.101000000    -4.954000000     5.747000000
H    -0.655000000    -3.747000000     6.259000000
O     2.374000000    -6.552000000     0.599000000
H     2.410000000    -5.874000000     1.274000000
H     2.455000000    -6.073000000    -0.226000000
O     5.143000000    -6.382000000     3.479000000
H     5.027000000    -6.432000000     2.530000000
H     4.797000000    -5.522000000     3.717000000
O     1.082000000    -5.212000000     3.696000000
H     1.890000000    -5.032000000     3.217000000
H     0.639000000    -4.364000000     3.746000000
O     7.117000000    -6.710000000    -0.634000000
H     6.274000000    -6.586000000    -0.197000000
H     6.956000000    -7.407000000    -1.270000000
O     0.577000000    -2.568000000     3.757000000
H     0.692000000    -1.930000000     3.052000000
H     0.548000000    -2.040000000     4.555000000
O     7.978000000    -3.868000000     4.522000000
H     8.398000000    -3.908000000     3.663000000
H     7.041000000    -3.915000000     4.333000000
O     4.203000000    -9.155000000     0.984000000
H     3.571000000    -8.444000000     1.091000000
H     3.815000000    -9.892000000     1.456000000
O     5.009000000    -5.150000000     0.882000000
H     5.748000000    -4.543000000     0.904000000
H     4.300000000    -4.680000000     1.320000000
O     6.454000000    -1.200000000     2.353000000
H     6.643000000    -0.888000000     3.238000000
H     5.532000000    -1.458000000     2.381000000
