201
-1233.65765
C     5.198000000     1.805000000    -0.509000000
H     5.098000000     2.876000000    -0.355000000
C     4.470000000     1.206000000    -1.512000000
C     4.803000000    -0.065000000    -2.008000000
H     4.242000000    -0.463000000    -2.850000000
C     3.235000000     1.920000000    -2.052000000
O     3.288000000     3.357000000    -1.783000000
H     2.354000000     1.540000000    -1.515000000
O     3.155000000     1.642000000    -3.444000000
C     1.959000000     1.467000000    -4.082000000
C     1.638000000     0.184000000    -4.398000000
H     2.475000000    -0.491000000    -4.245000000
C     0.332000000    -0.207000000    -4.658000000
O     0.083000000    -1.539000000    -4.646000000
C    -0.629000000     0.778000000    -4.854000000
C    -2.042000000     0.388000000    -5.198000000
H    -2.517000000     1.255000000    -5.663000000
C    -2.803000000     0.022000000    -3.907000000
C    -3.627000000     0.955000000    -3.369000000
H    -3.741000000     1.907000000    -3.881000000
H    -2.152000000    -0.439000000    -5.903000000
C    -0.314000000     2.063000000    -4.552000000
H    -0.992000000     2.877000000    -4.797000000
C     0.955000000     2.411000000    -4.088000000
C     1.219000000     3.837000000    -3.687000000
H     0.593000000     4.453000000    -4.337000000
H     2.242000000     4.015000000    -4.027000000
C     0.967000000     4.150000000    -2.273000000
C    -0.237000000     4.573000000    -1.762000000
H    -1.090000000     4.710000000    -2.421000000
C     2.053000000     3.855000000    -1.392000000
C     1.860000000     3.972000000    -0.012000000
H     2.668000000     3.842000000     0.704000000
C     0.664000000     4.535000000     0.433000000
O     0.417000000     4.708000000     1.845000000
C    -0.291000000     3.607000000     2.397000000
C     0.365000000     3.065000000     3.680000000
C    -0.355000000     2.610000000     4.812000000
H    -1.411000000     2.862000000     4.849000000
C     1.777000000     2.994000000     3.712000000
H     2.360000000     3.392000000     2.886000000
O    -1.714000000     3.893000000     2.689000000
H    -0.245000000     2.771000000     1.683000000
C    -0.411000000     4.872000000    -0.406000000
C    -1.839000000     5.333000000     0.057000000
H    -2.313000000     5.892000000    -0.752000000
H    -1.812000000     6.067000000     0.866000000
C    -2.651000000     4.079000000     0.412000000
C    -3.549000000     3.481000000    -0.492000000
H    -3.575000000     3.920000000    -1.485000000
C    -2.672000000     3.590000000     1.738000000
C    -3.412000000     2.456000000     2.039000000
H    -3.489000000     2.117000000     3.069000000
C    -4.216000000     1.802000000     1.112000000
O    -4.903000000     0.595000000     1.335000000
C    -4.250000000    -0.504000000     0.833000000
C    -4.195000000    -1.624000000     1.908000000
C    -3.765000000    -1.385000000     3.186000000
H    -3.502000000    -0.353000000     3.401000000
C    -4.477000000    -2.940000000     1.477000000
H    -4.666000000    -3.146000000     0.426000000
O    -4.810000000    -0.909000000    -0.404000000
H    -3.226000000    -0.174000000     0.603000000
C    -4.237000000     2.354000000    -0.175000000
C    -5.032000000     1.775000000    -1.380000000
H    -5.441000000     2.532000000    -2.052000000
H    -5.859000000     1.252000000    -0.894000000
C    -4.306000000     0.682000000    -2.117000000
C    -4.294000000    -0.632000000    -1.632000000
C    -3.461000000    -1.580000000    -2.176000000
H    -3.469000000    -2.618000000    -1.853000000
C    -2.783000000    -1.289000000    -3.342000000
O    -1.999000000    -2.229000000    -3.911000000
C    -0.606000000    -2.207000000    -3.546000000
H    -0.387000000    -1.623000000    -2.640000000
C    -0.014000000    -3.588000000    -3.198000000
C     1.241000000    -3.982000000    -3.667000000
H     1.812000000    -3.401000000    -4.386000000
C    -0.648000000    -4.356000000    -2.166000000
H    -1.550000000    -4.051000000    -1.642000000
C    -0.021000000    -5.543000000    -1.747000000
O    -0.662000000    -6.294000000    -0.757000000
C     1.191000000    -5.920000000    -2.309000000
H     1.679000000    -6.797000000    -1.892000000
C     1.841000000    -5.117000000    -3.194000000
O     3.170000000    -5.416000000    -3.597000000
C     4.080000000    -4.385000000    -3.760000000
C     4.411000000    -3.597000000    -2.671000000
H     3.912000000    -3.803000000    -1.728000000
C     4.563000000    -4.106000000    -5.030000000
H     4.252000000    -4.711000000    -5.878000000
C     5.482000000    -3.068000000    -5.102000000
H     6.007000000    -2.870000000    -6.033000000
C     6.095000000    -2.488000000    -3.996000000
H     6.926000000    -1.801000000    -4.132000000
C     5.489000000    -2.659000000    -2.755000000
O     6.074000000    -2.062000000    -1.715000000
C     5.793000000    -0.798000000    -1.401000000
C     6.416000000    -0.242000000    -0.227000000
H     7.288000000    -0.670000000     0.261000000
C     6.075000000     1.054000000     0.228000000
O     6.771000000     1.504000000     1.347000000
C     6.113000000     2.421000000     2.232000000
C     5.259000000     1.876000000     3.205000000
H     5.262000000     0.799000000     3.353000000
C     6.439000000     3.838000000     2.258000000
H     7.229000000     4.193000000     1.600000000
C     5.669000000     4.677000000     3.066000000
H     5.898000000     5.739000000     3.032000000
C     4.784000000     4.177000000     4.011000000
H     4.218000000     4.841000000     4.659000000
C     4.645000000     2.741000000     4.083000000
O     3.721000000     2.252000000     4.963000000
C     2.406000000     2.416000000     4.838000000
C     1.618000000     2.055000000     5.943000000
H     2.147000000     1.630000000     6.793000000
C     0.211000000     2.117000000     5.920000000
O    -0.625000000     1.661000000     7.020000000
C    -1.702000000     0.873000000     6.885000000
C    -1.694000000    -0.272000000     6.066000000
H    -0.852000000    -0.601000000     5.463000000
C    -2.902000000     1.276000000     7.400000000
H    -2.851000000     2.295000000     7.775000000
C    -4.098000000     0.581000000     7.263000000
H    -5.027000000     0.994000000     7.646000000
C    -4.049000000    -0.671000000     6.617000000
H    -4.926000000    -1.313000000     6.620000000
C    -2.864000000    -1.017000000     6.005000000
O    -2.827000000    -2.214000000     5.351000000
C    -3.649000000    -2.411000000     4.156000000
C    -3.959000000    -3.720000000     3.705000000
H    -3.881000000    -4.489000000     4.469000000
C    -4.416000000    -3.962000000     2.423000000
O    -4.571000000    -5.259000000     1.961000000
C    -3.952000000    -5.781000000     0.861000000
C    -4.713000000    -6.476000000    -0.057000000
H    -5.776000000    -6.578000000     0.147000000
C    -4.136000000    -7.140000000    -1.143000000
H    -4.797000000    -7.695000000    -1.805000000
C    -2.807000000    -7.012000000    -1.421000000
H    -2.348000000    -7.472000000    -2.293000000
C    -2.038000000    -6.290000000    -0.526000000
C    -2.595000000    -5.696000000     0.569000000
H    -1.986000000    -5.122000000     1.263000000
O     1.069000000    -6.692000000     6.900000000
H     1.011000000    -5.739000000     6.970000000
H     0.840000000    -6.880000000     5.990000000
O     5.716000000    -5.488000000     6.715000000
H     5.721000000    -5.196000000     7.626000000
H     5.010000000    -4.986000000     6.307000000
O     4.658000000    -2.646000000     1.062000000
H     5.368000000    -3.270000000     0.909000000
H     4.824000000    -1.937000000     0.440000000
O     2.798000000    -3.250000000    10.041000000
H     2.053000000    -2.805000000     9.637000000
H     3.472000000    -2.574000000    10.111000000
O     2.530000000     0.385000000    10.024000000
H     2.130000000     1.060000000    10.573000000
H     3.165000000    -0.044000000    10.597000000
O     3.700000000    -6.446000000     3.659000000
H     3.729000000    -5.810000000     4.374000000
H     2.774000000    -6.673000000     3.577000000
O     6.241000000     1.073000000     6.084000000
H     5.734000000     1.322000000     6.857000000
H     5.667000000     0.478000000     5.602000000
O     3.836000000    -1.531000000     7.358000000
H     3.700000000    -0.984000000     6.584000000
H     3.138000000    -2.185000000     7.315000000
O     6.139000000    -2.457000000     7.673000000
H     5.231000000    -2.224000000     7.867000000
H     6.428000000    -2.953000000     8.439000000
O     0.601000000    -1.510000000     8.394000000
H     0.830000000    -0.882000000     9.079000000
H     0.694000000    -1.018000000     7.578000000
O     1.147000000    -6.120000000     1.604000000
H     0.490000000    -6.131000000     0.908000000
H     1.490000000    -5.227000000     1.595000000
O     3.883000000    -4.295000000     5.149000000
H     4.527000000    -3.752000000     4.694000000
H     3.132000000    -3.716000000     5.281000000
O     0.601000000    -3.866000000     6.946000000
H     0.590000000    -3.258000000     7.685000000
H     0.957000000    -3.354000000     6.220000000
O     4.825000000    -5.694000000     0.441000000
H     3.980000000    -5.505000000     0.850000000
H     5.409000000    -5.884000000     1.175000000
O     7.648000000    -2.167000000     5.555000000
H     7.244000000    -2.324000000     6.408000000
H     6.917000000    -2.185000000     4.937000000
O     4.636000000     0.966000000     8.490000000
H     4.524000000     0.117000000     8.062000000
H     3.856000000     1.064000000     9.036000000
O     1.891000000    -3.637000000     1.150000000
H     2.691000000    -3.145000000     0.966000000
H     1.292000000    -2.990000000     1.524000000
O     5.344000000    -2.309000000     3.815000000
H     5.301000000    -2.537000000     2.886000000
H     4.691000000    -1.617000000     3.921000000
O    -1.586000000    -3.325000000     8.865000000
H    -1.127000000    -3.934000000     8.286000000
H    -0.961000000    -2.614000000     9.008000000
