201
-1242.23568
C     4.504000000     2.760000000    -1.369000000
H     4.007000000     3.679000000    -1.067000000
C     4.093000000     1.812000000    -2.307000000
C     4.826000000     0.649000000    -2.483000000
H     4.585000000    -0.054000000    -3.276000000
C     2.715000000     1.951000000    -2.838000000
O     2.224000000     3.340000000    -2.836000000
H     2.051000000     1.443000000    -2.123000000
O     2.680000000     1.428000000    -4.180000000
C     1.533000000     0.740000000    -4.525000000
C     1.654000000    -0.666000000    -4.474000000
H     2.590000000    -1.191000000    -4.298000000
C     0.481000000    -1.452000000    -4.600000000
O     0.615000000    -2.770000000    -4.202000000
C    -0.780000000    -0.826000000    -4.857000000
C    -2.054000000    -1.645000000    -4.995000000
H    -2.618000000    -1.212000000    -5.824000000
C    -2.817000000    -1.775000000    -3.645000000
C    -3.686000000    -0.820000000    -3.224000000
H    -3.946000000    -0.016000000    -3.908000000
H    -1.903000000    -2.614000000    -5.474000000
C    -0.876000000     0.525000000    -5.009000000
H    -1.850000000     0.973000000    -5.187000000
C     0.261000000     1.310000000    -4.765000000
C     0.056000000     2.792000000    -4.837000000
H    -0.807000000     2.922000000    -5.494000000
H     0.890000000     3.306000000    -5.320000000
C    -0.065000000     3.366000000    -3.414000000
C    -1.346000000     3.786000000    -3.011000000
H    -2.161000000     3.697000000    -3.724000000
C     0.961000000     3.671000000    -2.500000000
C     0.731000000     4.120000000    -1.190000000
H     1.611000000     4.357000000    -0.599000000
C    -0.539000000     4.416000000    -0.768000000
O    -0.648000000     4.905000000     0.490000000
C    -1.159000000     4.018000000     1.442000000
C    -0.479000000     4.021000000     2.785000000
C    -1.058000000     3.555000000     3.958000000
H    -2.115000000     3.310000000     4.015000000
C     0.895000000     4.347000000     2.780000000
H     1.335000000     4.718000000     1.858000000
O    -2.594000000     4.123000000     1.585000000
H    -0.919000000     3.028000000     1.026000000
C    -1.634000000     4.221000000    -1.694000000
C    -3.071000000     4.470000000    -1.317000000
H    -3.590000000     4.607000000    -2.268000000
H    -3.152000000     5.383000000    -0.724000000
C    -3.752000000     3.402000000    -0.514000000
C    -4.306000000     2.338000000    -1.225000000
H    -4.344000000     2.467000000    -2.303000000
C    -3.387000000     3.207000000     0.826000000
C    -3.924000000     2.067000000     1.437000000
H    -3.847000000     1.833000000     2.496000000
C    -4.561000000     1.067000000     0.729000000
O    -4.921000000    -0.127000000     1.346000000
C    -4.014000000    -1.174000000     1.114000000
C    -3.661000000    -1.916000000     2.438000000
C    -3.672000000    -1.260000000     3.645000000
H    -4.081000000    -0.255000000     3.701000000
C    -3.059000000    -3.196000000     2.468000000
H    -2.966000000    -3.731000000     1.526000000
O    -4.538000000    -2.058000000     0.122000000
H    -3.012000000    -0.806000000     0.851000000
C    -4.738000000     1.177000000    -0.666000000
C    -5.310000000     0.107000000    -1.621000000
H    -5.713000000     0.638000000    -2.486000000
H    -6.060000000    -0.414000000    -1.022000000
C    -4.276000000    -0.887000000    -1.980000000
C    -3.982000000    -1.959000000    -1.130000000
C    -3.130000000    -2.974000000    -1.519000000
H    -2.821000000    -3.780000000    -0.859000000
C    -2.461000000    -2.779000000    -2.739000000
O    -1.418000000    -3.612000000    -3.129000000
C    -0.045000000    -3.176000000    -2.965000000
H    -0.146000000    -2.244000000    -2.391000000
C     0.787000000    -4.255000000    -2.257000000
C     2.144000000    -4.007000000    -2.088000000
H     2.571000000    -3.087000000    -2.478000000
C     0.184000000    -5.325000000    -1.565000000
H    -0.871000000    -5.571000000    -1.646000000
C     0.986000000    -6.073000000    -0.669000000
O     0.406000000    -7.089000000    -0.024000000
C     2.321000000    -5.796000000    -0.500000000
H     2.903000000    -6.336000000     0.242000000
C     2.944000000    -4.775000000    -1.222000000
O     4.240000000    -4.380000000    -0.902000000
C     5.006000000    -3.748000000    -1.846000000
C     5.567000000    -2.471000000    -1.551000000
H     5.409000000    -2.048000000    -0.562000000
C     5.314000000    -4.313000000    -3.112000000
H     4.918000000    -5.264000000    -3.459000000
C     6.307000000    -3.724000000    -3.881000000
H     6.763000000    -4.268000000    -4.704000000
C     6.822000000    -2.458000000    -3.602000000
H     7.492000000    -2.000000000    -4.326000000
C     6.322000000    -1.770000000    -2.435000000
O     6.863000000    -0.559000000    -2.109000000
C     6.058000000     0.476000000    -1.822000000
C     6.533000000     1.448000000    -0.895000000
H     7.401000000     1.253000000    -0.270000000
C     5.731000000     2.537000000    -0.634000000
O     6.222000000     3.304000000     0.387000000
C     5.533000000     4.238000000     1.099000000
C     4.741000000     3.824000000     2.159000000
H     4.792000000     2.760000000     2.378000000
C     5.355000000     5.523000000     0.569000000
H     5.949000000     5.942000000    -0.239000000
C     4.529000000     6.478000000     1.243000000
H     4.559000000     7.511000000     0.907000000
C     3.869000000     6.057000000     2.452000000
H     3.366000000     6.810000000     3.053000000
C     3.855000000     4.676000000     2.818000000
O     3.080000000     4.355000000     3.916000000
C     1.707000000     4.305000000     3.941000000
C     1.059000000     3.912000000     5.127000000
H     1.718000000     3.673000000     5.958000000
C    -0.218000000     3.412000000     5.102000000
O    -0.595000000     2.701000000     6.239000000
C    -1.799000000     2.050000000     6.414000000
C    -1.978000000     0.700000000     6.130000000
H    -1.193000000     0.168000000     5.597000000
C    -2.747000000     2.738000000     7.078000000
H    -2.673000000     3.778000000     7.383000000
C    -3.975000000     2.093000000     7.433000000
H    -4.825000000     2.616000000     7.864000000
C    -4.178000000     0.739000000     7.092000000
H    -5.125000000     0.235000000     7.268000000
C    -3.252000000     0.071000000     6.364000000
O    -3.527000000    -1.301000000     6.072000000
C    -3.279000000    -1.865000000     4.854000000
C    -2.752000000    -3.131000000     4.822000000
H    -2.398000000    -3.710000000     5.671000000
C    -2.594000000    -3.848000000     3.628000000
O    -1.890000000    -4.983000000     3.630000000
C    -1.922000000    -5.850000000     2.535000000
C    -2.834000000    -6.915000000     2.531000000
H    -3.555000000    -6.916000000     3.344000000
C    -2.918000000    -7.822000000     1.474000000
H    -3.644000000    -8.630000000     1.511000000
C    -1.792000000    -7.846000000     0.630000000
H    -1.666000000    -8.641000000    -0.100000000
C    -0.734000000    -6.931000000     0.723000000
C    -0.787000000    -5.958000000     1.675000000
H     0.091000000    -5.347000000     1.871000000
O     2.053000000    -5.205000000     9.403000000
H     2.205000000    -4.447000000     8.839000000
H     1.411000000    -5.732000000     8.928000000
O     4.731000000    -0.379000000     1.466000000
H     4.215000000    -1.185000000     1.465000000
H     4.421000000     0.105000000     0.701000000
O     4.718000000     0.113000000     7.702000000
H     4.578000000    -0.824000000     7.562000000
H     3.985000000     0.534000000     7.253000000
O    -0.227000000    -2.528000000     8.359000000
H    -1.129000000    -2.727000000     8.109000000
H     0.308000000    -3.064000000     7.773000000
O     4.718000000    -4.750000000     4.102000000
H     4.803000000    -4.683000000     5.053000000
H     5.620000000    -4.746000000     3.781000000
O     5.450000000     0.481000000     3.804000000
H     5.192000000    -0.344000000     4.215000000
H     5.171000000     0.393000000     2.893000000
O     7.436000000    -1.837000000     2.244000000
H     6.645000000    -1.307000000     2.339000000
H     8.041000000    -1.485000000     2.897000000
O     2.244000000    -7.336000000     5.814000000
H     2.059000000    -6.399000000     5.747000000
H     2.795000000    -7.417000000     6.592000000
O     4.719000000    -4.533000000     6.844000000
H     4.724000000    -5.333000000     7.369000000
H     4.867000000    -3.830000000     7.476000000
O     2.861000000     1.271000000     5.670000000
H     2.607000000     0.404000000     5.355000000
H     2.278000000     1.438000000     6.410000000
O     1.683000000    -0.436000000     7.637000000
H     1.218000000    -1.195000000     7.990000000
H     1.861000000    -0.666000000     6.726000000
O     2.132000000    -5.194000000     3.429000000
H     3.080000000    -5.178000000     3.560000000
H     1.818000000    -4.396000000     3.854000000
O     2.282000000    -3.617000000     6.977000000
H     2.000000000    -3.347000000     6.103000000
H     3.174000000    -3.940000000     6.852000000
O    -0.008000000    -5.352000000     5.614000000
H     0.516000000    -4.562000000     5.488000000
H    -0.324000000    -5.573000000     4.738000000
O     0.319000000     1.891000000     9.074000000
H     1.204000000     2.254000000     9.068000000
H     0.288000000     1.322000000     8.304000000
O     4.879000000     3.204000000     6.440000000
H     4.342000000     2.586000000     5.943000000
H     4.640000000     4.063000000     6.092000000
O     1.355000000    -7.942000000     3.071000000
H     1.593000000    -7.039000000     2.860000000
H     1.652000000    -8.064000000     3.973000000
O     3.615000000    -2.908000000     1.508000000
H     3.819000000    -3.682000000     2.032000000
H     2.928000000    -3.198000000     0.908000000
O     4.671000000    -1.888000000     4.947000000
H     4.591000000    -2.839000000     4.872000000
H     3.774000000    -1.581000000     5.075000000
