201
-1263.45709
C     4.367000000     2.126000000    -1.161000000
H     3.991000000     3.054000000    -0.737000000
C     3.700000000     1.474000000    -2.183000000
C     4.288000000     0.309000000    -2.775000000
H     3.828000000    -0.194000000    -3.622000000
C     2.343000000     2.012000000    -2.617000000
O     2.335000000     3.459000000    -2.477000000
H     1.601000000     1.603000000    -1.916000000
O     2.124000000     1.668000000    -4.011000000
C     0.859000000     1.314000000    -4.378000000
C     0.609000000    -0.034000000    -4.494000000
H     1.424000000    -0.721000000    -4.279000000
C    -0.697000000    -0.539000000    -4.625000000
O    -0.855000000    -1.906000000    -4.596000000
C    -1.790000000     0.315000000    -4.731000000
C    -3.200000000    -0.204000000    -4.803000000
H    -4.008000000     0.447000000    -5.146000000
C    -3.648000000    -0.714000000    -3.408000000
C    -4.416000000     0.128000000    -2.617000000
H    -4.870000000     1.001000000    -3.079000000
H    -3.254000000    -0.946000000    -5.602000000
C    -1.516000000     1.670000000    -4.632000000
H    -2.307000000     2.397000000    -4.803000000
C    -0.244000000     2.180000000    -4.492000000
C    -0.049000000     3.687000000    -4.168000000
H    -0.738000000     4.250000000    -4.802000000
H     0.888000000     3.913000000    -4.681000000
C     0.006000000     4.071000000    -2.684000000
C    -1.123000000     4.554000000    -2.085000000
H    -2.086000000     4.681000000    -2.572000000
C     1.216000000     3.928000000    -1.965000000
C     1.258000000     4.156000000    -0.595000000
H     2.162000000     4.023000000    -0.005000000
C     0.047000000     4.464000000     0.073000000
O     0.195000000     4.589000000     1.415000000
C    -0.338000000     3.527000000     2.205000000
C     0.565000000     3.227000000     3.447000000
C     0.112000000     2.543000000     4.581000000
H    -0.935000000     2.252000000     4.622000000
C     1.892000000     3.685000000     3.449000000
H     2.370000000     4.307000000     2.697000000
O    -1.707000000     3.824000000     2.537000000
H    -0.228000000     2.631000000     1.576000000
C    -1.099000000     4.630000000    -0.657000000
C    -2.363000000     4.841000000    -0.039000000
H    -3.096000000     5.362000000    -0.660000000
H    -2.191000000     5.580000000     0.746000000
C    -3.025000000     3.546000000     0.545000000
C    -3.980000000     2.795000000    -0.126000000
H    -4.368000000     3.140000000    -1.081000000
C    -2.658000000     3.167000000     1.832000000
C    -3.244000000     2.058000000     2.413000000
H    -2.872000000     1.731000000     3.380000000
C    -4.073000000     1.261000000     1.665000000
O    -4.364000000    -0.013000000     2.110000000
C    -3.737000000    -1.199000000     1.559000000
C    -3.256000000    -2.087000000     2.700000000
C    -3.050000000    -1.539000000     3.995000000
H    -3.060000000    -0.457000000     4.096000000
C    -3.058000000    -3.453000000     2.430000000
H    -3.156000000    -3.883000000     1.437000000
O    -4.523000000    -1.840000000     0.500000000
H    -2.803000000    -0.834000000     1.108000000
C    -4.492000000     1.625000000     0.404000000
C    -5.446000000     0.813000000    -0.449000000
H    -5.986000000     1.561000000    -1.033000000
H    -6.129000000     0.333000000     0.254000000
C    -4.700000000    -0.196000000    -1.281000000
C    -4.360000000    -1.429000000    -0.780000000
C    -3.700000000    -2.359000000    -1.568000000
H    -3.402000000    -3.292000000    -1.096000000
C    -3.254000000    -1.956000000    -2.872000000
O    -2.454000000    -2.876000000    -3.487000000
C    -1.103000000    -2.533000000    -3.326000000
H    -1.027000000    -1.837000000    -2.478000000
C    -0.208000000    -3.699000000    -3.076000000
C     0.968000000    -3.839000000    -3.772000000
H     1.234000000    -3.119000000    -4.542000000
C    -0.490000000    -4.523000000    -1.982000000
H    -1.444000000    -4.426000000    -1.470000000
C     0.444000000    -5.515000000    -1.604000000
O     0.222000000    -6.367000000    -0.555000000
C     1.643000000    -5.666000000    -2.339000000
H     2.431000000    -6.363000000    -2.067000000
C     1.825000000    -4.891000000    -3.481000000
O     3.032000000    -5.058000000    -4.222000000
C     3.950000000    -3.970000000    -4.474000000
C     4.535000000    -3.301000000    -3.390000000
H     4.266000000    -3.624000000    -2.388000000
C     4.470000000    -3.722000000    -5.773000000
H     4.230000000    -4.361000000    -6.619000000
C     5.350000000    -2.687000000    -6.015000000
H     5.874000000    -2.575000000    -6.961000000
C     5.697000000    -1.896000000    -4.943000000
H     6.403000000    -1.080000000    -5.073000000
C     5.442000000    -2.215000000    -3.634000000
O     6.048000000    -1.491000000    -2.647000000
C     5.457000000    -0.258000000    -2.223000000
C     6.033000000     0.368000000    -1.178000000
H     6.940000000    -0.048000000    -0.746000000
C     5.537000000     1.564000000    -0.606000000
O     6.276000000     2.178000000     0.401000000
C     5.845000000     3.178000000     1.157000000
C     5.113000000     2.939000000     2.310000000
H     4.768000000     1.944000000     2.580000000
C     6.319000000     4.512000000     0.921000000
H     6.894000000     4.731000000     0.025000000
C     5.894000000     5.521000000     1.794000000
H     6.371000000     6.498000000     1.801000000
C     5.101000000     5.219000000     2.873000000
H     4.795000000     5.938000000     3.628000000
C     4.680000000     3.919000000     3.127000000
O     4.063000000     3.614000000     4.316000000
C     2.783000000     3.244000000     4.411000000
C     2.320000000     2.723000000     5.603000000
H     2.953000000     2.307000000     6.383000000
C     0.975000000     2.328000000     5.697000000
O     0.612000000     1.674000000     6.843000000
C    -0.652000000     1.153000000     7.021000000
C    -0.847000000    -0.226000000     6.727000000
H    -0.021000000    -0.887000000     6.475000000
C    -1.735000000     1.949000000     7.357000000
H    -1.627000000     2.993000000     7.637000000
C    -3.053000000     1.403000000     7.447000000
H    -3.882000000     2.044000000     7.735000000
C    -3.222000000     0.065000000     7.041000000
H    -4.205000000    -0.354000000     7.237000000
C    -2.149000000    -0.719000000     6.680000000
O    -2.434000000    -1.939000000     6.187000000
C    -2.610000000    -2.384000000     4.948000000
C    -2.475000000    -3.755000000     4.783000000
H    -2.271000000    -4.448000000     5.596000000
C    -2.637000000    -4.283000000     3.489000000
O    -2.403000000    -5.620000000     3.253000000
C    -2.285000000    -6.207000000     2.056000000
C    -3.355000000    -6.902000000     1.463000000
H    -4.321000000    -6.966000000     1.957000000
C    -3.248000000    -7.264000000     0.110000000
H    -4.061000000    -7.701000000    -0.465000000
C    -2.040000000    -7.056000000    -0.571000000
H    -1.974000000    -7.408000000    -1.598000000
C    -0.958000000    -6.481000000     0.064000000
C    -1.068000000    -6.014000000     1.362000000
H    -0.207000000    -5.557000000     1.843000000
O    -1.612000000    -7.674000000     5.323000000
H    -0.766000000    -7.289000000     5.096000000
H    -2.245000000    -7.189000000     4.794000000
O     5.031000000    -2.503000000     0.034000000
H     4.916000000    -2.153000000     0.918000000
H     5.443000000    -1.790000000    -0.454000000
O     7.553000000    -1.204000000     2.240000000
H     6.602000000    -1.124000000     2.322000000
H     7.685000000    -2.034000000     1.781000000
O     3.176000000    -5.916000000     8.175000000
H     2.504000000    -6.259000000     8.763000000
H     2.768000000    -5.153000000     7.765000000
O     6.685000000    -4.400000000     4.611000000
H     6.426000000    -5.034000000     3.942000000
H     7.615000000    -4.242000000     4.445000000
O     0.184000000    -5.924000000     7.278000000
H     0.137000000    -6.192000000     6.360000000
H    -0.095000000    -6.697000000     7.768000000
O     4.811000000    -1.242000000     2.275000000
H     4.709000000    -1.967000000     2.892000000
H     4.039000000    -0.695000000     2.418000000
O     4.419000000    -7.428000000     5.956000000
H     4.155000000    -6.760000000     6.589000000
H     4.526000000    -6.950000000     5.133000000
O     5.569000000    -1.914000000     6.684000000
H     4.907000000    -2.327000000     6.130000000
H     6.401000000    -2.262000000     6.362000000
O     1.877000000    -9.034000000     3.503000000
H     1.375000000    -9.841000000     3.617000000
H     1.980000000    -8.948000000     2.555000000
O     2.272000000    -7.929000000     0.883000000
H     1.495000000    -7.505000000     0.520000000
H     2.960000000    -7.266000000     0.816000000
O     2.266000000    -0.921000000     5.673000000
H     1.795000000    -1.609000000     5.203000000
H     2.503000000    -1.322000000     6.509000000
O     4.114000000    -5.923000000     0.759000000
H     3.500000000    -5.253000000     1.061000000
H     4.928000000    -5.446000000     0.598000000
O     4.149000000    -5.900000000     3.725000000
H     3.653000000    -5.168000000     3.357000000
H     4.047000000    -6.604000000     3.085000000
O     1.503000000    -3.564000000     6.746000000
H     0.900000000    -4.240000000     7.055000000
H     1.433000000    -3.599000000     5.792000000
O     5.113000000     0.663000000     5.460000000
H     5.153000000    -0.283000000     5.596000000
H     4.346000000     0.793000000     4.902000000
O     0.709000000    -6.529000000     4.228000000
H     1.207000000    -5.726000000     4.076000000
H     1.353000000    -7.231000000     4.132000000
O     2.919000000     0.338000000     3.354000000
H     2.770000000     0.001000000     4.237000000
H     2.175000000     0.918000000     3.191000000
O     4.074000000    -3.301000000     4.682000000
H     3.157000000    -3.354000000     4.414000000
H     4.410000000    -4.190000000     4.565000000
