201
-1229.36465
C     3.331000000     3.751000000    -2.297000000
H     2.554000000     4.508000000    -2.234000000
C     3.004000000     2.489000000    -2.848000000
C     3.927000000     1.456000000    -2.925000000
H     3.695000000     0.455000000    -3.282000000
C     1.619000000     2.292000000    -3.477000000
O     0.904000000     3.511000000    -3.695000000
H     0.991000000     1.842000000    -2.693000000
O     1.607000000     1.361000000    -4.593000000
C     0.632000000     0.347000000    -4.590000000
C     1.028000000    -0.934000000    -4.214000000
H     2.006000000    -1.172000000    -3.805000000
C     0.059000000    -1.952000000    -4.036000000
O     0.613000000    -3.165000000    -3.550000000
C    -1.300000000    -1.664000000    -4.260000000
C    -2.351000000    -2.787000000    -4.228000000
H    -3.245000000    -2.538000000    -4.802000000
C    -2.734000000    -3.056000000    -2.772000000
C    -3.887000000    -2.414000000    -2.363000000
H    -4.370000000    -1.733000000    -3.061000000
H    -2.002000000    -3.760000000    -4.580000000
C    -1.666000000    -0.384000000    -4.647000000
H    -2.659000000     0.013000000    -4.837000000
C    -0.733000000     0.632000000    -4.855000000
C    -1.237000000     2.078000000    -5.168000000
H    -2.181000000     2.054000000    -5.715000000
H    -0.422000000     2.492000000    -5.766000000
C    -1.417000000     2.896000000    -3.960000000
C    -2.651000000     2.861000000    -3.298000000
H    -3.518000000     2.368000000    -3.729000000
C    -0.395000000     3.588000000    -3.284000000
C    -0.545000000     4.231000000    -2.083000000
H     0.328000000     4.679000000    -1.616000000
C    -1.779000000     4.146000000    -1.441000000
O    -1.872000000     4.687000000    -0.140000000
C    -1.828000000     3.697000000     0.935000000
C    -0.834000000     3.980000000     2.052000000
C    -0.777000000     3.177000000     3.168000000
H    -1.420000000     2.300000000     3.175000000
C     0.263000000     4.820000000     1.813000000
H     0.269000000     5.414000000     0.902000000
O    -3.173000000     3.355000000     1.367000000
H    -1.320000000     2.842000000     0.465000000
C    -2.833000000     3.535000000    -2.050000000
C    -4.134000000     3.375000000    -1.306000000
H    -5.045000000     3.221000000    -1.889000000
H    -4.196000000     4.248000000    -0.653000000
C    -4.184000000     2.114000000    -0.377000000
C    -4.663000000     0.896000000    -0.890000000
H    -5.080000000     0.833000000    -1.892000000
C    -3.747000000     2.195000000     0.950000000
C    -3.771000000     1.045000000     1.788000000
H    -3.484000000     1.135000000     2.832000000
C    -4.329000000    -0.184000000     1.310000000
O    -4.379000000    -1.194000000     2.224000000
C    -3.304000000    -2.170000000     2.093000000
C    -2.732000000    -2.634000000     3.477000000
C    -2.671000000    -1.767000000     4.593000000
H    -3.084000000    -0.776000000     4.422000000
C    -2.245000000    -3.930000000     3.655000000
H    -2.280000000    -4.713000000     2.902000000
O    -3.833000000    -3.145000000     1.257000000
H    -2.489000000    -1.710000000     1.515000000
C    -4.830000000    -0.238000000    -0.001000000
C    -5.411000000    -1.559000000    -0.476000000
H    -6.058000000    -1.435000000    -1.347000000
H    -5.951000000    -2.083000000     0.316000000
C    -4.275000000    -2.476000000    -1.030000000
C    -3.479000000    -3.093000000    -0.059000000
C    -2.338000000    -3.732000000    -0.506000000
H    -1.712000000    -4.345000000     0.137000000
C    -2.019000000    -3.783000000    -1.846000000
O    -0.832000000    -4.361000000    -2.163000000
C     0.401000000    -3.533000000    -2.126000000
H     0.100000000    -2.596000000    -1.636000000
C     1.634000000    -4.087000000    -1.425000000
C     2.926000000    -3.886000000    -1.891000000
H     3.089000000    -3.505000000    -2.896000000
C     1.451000000    -4.849000000    -0.197000000
H     0.461000000    -4.990000000     0.230000000
C     2.608000000    -5.274000000     0.512000000
O     2.503000000    -5.984000000     1.758000000
C     3.893000000    -4.978000000     0.115000000
H     4.714000000    -5.270000000     0.764000000
C     4.075000000    -4.236000000    -1.064000000
O     5.310000000    -3.852000000    -1.481000000
C     5.537000000    -2.923000000    -2.496000000
C     5.701000000    -1.574000000    -2.128000000
H     5.670000000    -1.228000000    -1.098000000
C     5.599000000    -3.232000000    -3.780000000
H     5.504000000    -4.287000000    -4.026000000
C     5.816000000    -2.296000000    -4.741000000
H     6.114000000    -2.717000000    -5.699000000
C     5.875000000    -0.922000000    -4.463000000
H     6.173000000    -0.300000000    -5.303000000
C     5.891000000    -0.576000000    -3.104000000
O     6.214000000     0.668000000    -2.578000000
C     5.268000000     1.708000000    -2.560000000
C     5.570000000     2.969000000    -2.010000000
H     6.471000000     3.096000000    -1.416000000
C     4.677000000     4.033000000    -1.897000000
O     5.000000000     5.240000000    -1.303000000
C     4.138000000     6.083000000    -0.546000000
C     3.478000000     5.661000000     0.588000000
H     3.663000000     4.662000000     0.975000000
C     3.793000000     7.436000000    -1.063000000
H     4.169000000     7.882000000    -1.980000000
C     2.952000000     8.282000000    -0.315000000
H     2.776000000     9.334000000    -0.524000000
C     2.403000000     7.743000000     0.853000000
H     1.708000000     8.362000000     1.413000000
C     2.655000000     6.483000000     1.309000000
O     2.150000000     6.058000000     2.553000000
C     1.239000000     5.073000000     2.730000000
C     1.201000000     4.462000000     3.958000000
H     2.022000000     4.755000000     4.609000000
C     0.230000000     3.458000000     4.159000000
O     0.232000000     2.652000000     5.343000000
C    -0.924000000     2.091000000     5.796000000
C    -0.879000000     0.736000000     6.051000000
H    -0.009000000     0.142000000     5.784000000
C    -2.037000000     2.852000000     6.085000000
H    -2.055000000     3.938000000     6.113000000
C    -3.211000000     2.226000000     6.485000000
H    -4.156000000     2.730000000     6.669000000
C    -3.148000000     0.871000000     6.810000000
H    -4.058000000     0.480000000     7.257000000
C    -1.994000000     0.123000000     6.601000000
O    -2.007000000    -1.260000000     6.842000000
C    -2.045000000    -2.131000000     5.786000000
C    -1.542000000    -3.384000000     5.893000000
H    -0.928000000    -3.589000000     6.766000000
C    -1.663000000    -4.296000000     4.833000000
O    -1.012000000    -5.481000000     5.013000000
C    -0.370000000    -6.142000000     3.985000000
C    -0.903000000    -7.375000000     3.580000000
H    -1.818000000    -7.800000000     3.986000000
C    -0.300000000    -8.081000000     2.607000000
H    -0.681000000    -9.071000000     2.368000000
C     0.922000000    -7.709000000     2.043000000
H     1.411000000    -8.302000000     1.274000000
C     1.330000000    -6.333000000     2.320000000
C     0.698000000    -5.583000000     3.279000000
H     1.170000000    -4.654000000     3.588000000
O     6.430000000    -5.584000000     7.522000000
H     5.696000000    -6.191000000     7.617000000
H     6.131000000    -4.947000000     6.873000000
O     6.893000000    -0.867000000     3.838000000
H     6.734000000    -0.182000000     4.488000000
H     6.182000000    -0.765000000     3.205000000
O     8.186000000    -2.438000000    -0.139000000
H     7.814000000    -3.032000000     0.513000000
H     8.475000000    -3.013000000    -0.849000000
O     4.883000000     0.002000000     7.731000000
H     5.831000000    -0.093000000     7.643000000
H     4.556000000    -0.005000000     6.831000000
O     2.004000000     0.460000000     8.319000000
H     2.530000000     1.136000000     7.893000000
H     2.215000000     0.543000000     9.249000000
O     3.455000000    -8.277000000     3.751000000
H     4.125000000    -7.686000000     4.094000000
H     2.912000000    -7.724000000     3.189000000
O     4.794000000     1.168000000     0.725000000
H     5.385000000     1.817000000     1.106000000
H     5.231000000     0.329000000     0.873000000
O     4.378000000     0.299000000     4.972000000
H     3.712000000    -0.363000000     4.787000000
H     4.296000000     0.928000000     4.256000000
O     8.121000000    -3.388000000     4.916000000
H     7.438000000    -2.856000000     4.508000000
H     8.423000000    -2.863000000     5.657000000
O     2.093000000    -4.929000000     6.421000000
H     1.860000000    -4.008000000     6.533000000
H     2.743000000    -4.928000000     5.718000000
O     3.536000000     2.444000000     3.223000000
H     2.600000000     2.251000000     3.282000000
H     3.731000000     2.397000000     2.287000000
O     6.843000000    -3.954000000     2.151000000
H     7.015000000    -4.691000000     2.737000000
H     5.957000000    -3.670000000     2.376000000
O     6.446000000    -5.968000000     4.060000000
H     7.156000000    -5.379000000     4.316000000
H     6.885000000    -6.693000000     3.615000000
O     1.909000000    -2.064000000     6.683000000
H     1.972000000    -1.178000000     7.038000000
H     2.326000000    -2.009000000     5.824000000
O     5.190000000    -3.269000000     6.716000000
H     5.678000000    -2.448000000     6.655000000
H     4.565000000    -3.230000000     5.992000000
O     6.786000000     2.398000000     3.903000000
H     6.501000000     2.612000000     3.014000000
H     7.690000000     2.099000000     3.798000000
O     5.805000000    -1.200000000     1.336000000
H     5.117000000    -1.776000000     1.669000000
H     6.491000000    -1.795000000     1.034000000
O     2.236000000     1.552000000     0.209000000
H     1.881000000     0.672000000     0.091000000
H     3.178000000     1.418000000     0.313000000
O     4.260000000    -4.635000000     4.360000000
H     3.942000000    -3.982000000     3.737000000
H     5.014000000    -5.035000000     3.924000000
