201
-1275.90336
C     3.251000000     2.417000000    -2.005000000
H     2.473000000     3.106000000    -1.687000000
C     2.910000000     1.526000000    -3.070000000
C     3.863000000     0.579000000    -3.437000000
H     3.581000000    -0.166000000    -4.177000000
C     1.471000000     1.541000000    -3.550000000
O     1.012000000     2.897000000    -3.895000000
H     0.757000000     1.226000000    -2.775000000
O     1.295000000     0.675000000    -4.714000000
C     0.238000000    -0.227000000    -4.678000000
C     0.592000000    -1.565000000    -4.442000000
H     1.621000000    -1.916000000    -4.438000000
C    -0.363000000    -2.506000000    -4.193000000
O    -0.014000000    -3.691000000    -3.656000000
C    -1.683000000    -2.047000000    -4.249000000
C    -2.825000000    -2.936000000    -3.890000000
H    -3.763000000    -2.640000000    -4.365000000
C    -3.088000000    -2.902000000    -2.387000000
C    -4.061000000    -2.071000000    -1.875000000
H    -4.652000000    -1.433000000    -2.527000000
H    -2.612000000    -3.961000000    -4.201000000
C    -2.022000000    -0.756000000    -4.513000000
H    -3.059000000    -0.472000000    -4.673000000
C    -1.074000000     0.179000000    -4.771000000
C    -1.478000000     1.620000000    -5.065000000
H    -2.487000000     1.742000000    -5.464000000
H    -0.757000000     2.056000000    -5.760000000
C    -1.454000000     2.530000000    -3.820000000
C    -2.631000000     2.752000000    -3.147000000
H    -3.562000000     2.247000000    -3.391000000
C    -0.251000000     3.197000000    -3.338000000
C    -0.306000000     3.998000000    -2.219000000
H     0.640000000     4.419000000    -1.889000000
C    -1.515000000     4.240000000    -1.597000000
O    -1.402000000     4.903000000    -0.391000000
C    -1.495000000     4.067000000     0.810000000
C    -0.600000000     4.556000000     1.907000000
C    -0.870000000     4.136000000     3.231000000
H    -1.739000000     3.520000000     3.444000000
C     0.465000000     5.425000000     1.672000000
H     0.652000000     5.764000000     0.656000000
O    -2.874000000     4.037000000     1.347000000
H    -1.183000000     3.039000000     0.572000000
C    -2.683000000     3.610000000    -2.028000000
C    -3.957000000     3.764000000    -1.300000000
H    -4.848000000     3.676000000    -1.926000000
H    -3.903000000     4.701000000    -0.743000000
C    -4.075000000     2.662000000    -0.280000000
C    -4.590000000     1.463000000    -0.690000000
H    -5.122000000     1.201000000    -1.601000000
C    -3.569000000     2.850000000     1.030000000
C    -3.523000000     1.856000000     1.965000000
H    -3.062000000     2.025000000     2.935000000
C    -4.038000000     0.642000000     1.584000000
O    -3.841000000    -0.288000000     2.536000000
C    -2.911000000    -1.387000000     2.303000000
C    -2.132000000    -1.588000000     3.597000000
C    -2.062000000    -0.639000000     4.641000000
H    -2.656000000     0.271000000     4.621000000
C    -1.286000000    -2.664000000     3.660000000
H    -1.258000000    -3.333000000     2.804000000
O    -3.590000000    -2.515000000     1.804000000
H    -2.168000000    -1.100000000     1.544000000
C    -4.612000000     0.469000000     0.276000000
C    -5.338000000    -0.896000000     0.011000000
H    -6.198000000    -0.713000000    -0.637000000
H    -5.734000000    -1.202000000     0.982000000
C    -4.261000000    -1.946000000    -0.484000000
C    -3.538000000    -2.738000000     0.398000000
C    -2.546000000    -3.583000000    -0.089000000
H    -1.836000000    -4.101000000     0.551000000
C    -2.271000000    -3.611000000    -1.460000000
O    -1.265000000    -4.362000000    -1.888000000
C    -0.057000000    -3.743000000    -2.226000000
H     0.115000000    -2.794000000    -1.696000000
C     1.167000000    -4.561000000    -1.624000000
C     2.429000000    -4.296000000    -2.211000000
H     2.577000000    -3.526000000    -2.963000000
C     1.022000000    -5.459000000    -0.584000000
H     0.001000000    -5.639000000    -0.259000000
C     2.119000000    -6.176000000    -0.016000000
O     1.913000000    -6.915000000     1.191000000
C     3.359000000    -5.851000000    -0.560000000
H     4.233000000    -6.441000000    -0.298000000
C     3.482000000    -4.982000000    -1.673000000
O     4.791000000    -4.773000000    -2.131000000
C     5.275000000    -3.930000000    -3.047000000
C     5.450000000    -2.618000000    -2.714000000
H     5.203000000    -2.328000000    -1.696000000
C     5.583000000    -4.336000000    -4.374000000
H     5.404000000    -5.349000000    -4.724000000
C     6.043000000    -3.367000000    -5.272000000
H     6.169000000    -3.686000000    -6.303000000
C     6.224000000    -2.050000000    -4.938000000
H     6.605000000    -1.324000000    -5.651000000
C     5.971000000    -1.673000000    -3.576000000
O     6.204000000    -0.314000000    -3.267000000
C     5.178000000     0.522000000    -2.874000000
C     5.403000000     1.402000000    -1.785000000
H     6.366000000     1.267000000    -1.298000000
C     4.440000000     2.325000000    -1.372000000
O     4.751000000     3.127000000    -0.303000000
C     4.217000000     4.409000000    -0.202000000
C     3.782000000     4.781000000     1.027000000
H     3.792000000     4.102000000     1.877000000
C     4.263000000     5.332000000    -1.273000000
H     4.817000000     5.133000000    -2.187000000
C     3.735000000     6.653000000    -1.100000000
H     3.752000000     7.372000000    -1.915000000
C     3.199000000     6.996000000     0.155000000
H     2.683000000     7.945000000     0.273000000
C     3.215000000     6.064000000     1.185000000
O     2.510000000     6.390000000     2.310000000
C     1.291000000     5.810000000     2.660000000
C     1.049000000     5.433000000     3.941000000
H     1.776000000     5.702000000     4.703000000
C    -0.064000000     4.656000000     4.239000000
O    -0.303000000     4.400000000     5.565000000
C    -1.190000000     3.489000000     6.136000000
C    -0.821000000     2.149000000     6.211000000
H     0.177000000     1.882000000     5.873000000
C    -2.473000000     3.923000000     6.470000000
H    -2.822000000     4.944000000     6.333000000
C    -3.416000000     3.032000000     6.962000000
H    -4.443000000     3.256000000     7.239000000
C    -2.978000000     1.727000000     7.154000000
H    -3.603000000     0.946000000     7.580000000
C    -1.705000000     1.273000000     6.754000000
O    -1.463000000    -0.056000000     6.939000000
C    -1.370000000    -0.924000000     5.858000000
C    -0.593000000    -2.115000000     5.909000000
H    -0.057000000    -2.295000000     6.837000000
C    -0.623000000    -2.964000000     4.826000000
O     0.307000000    -4.060000000     4.836000000
C     0.181000000    -5.121000000     3.949000000
C    -0.987000000    -5.905000000     4.131000000
H    -1.739000000    -5.745000000     4.900000000
C    -1.180000000    -7.030000000     3.301000000
H    -2.073000000    -7.649000000     3.258000000
C    -0.193000000    -7.264000000     2.335000000
H    -0.370000000    -8.094000000     1.656000000
C     0.946000000    -6.461000000     2.114000000
C     1.180000000    -5.401000000     3.003000000
H     2.080000000    -4.797000000     2.922000000
O     6.371000000     0.519000000     8.054000000
H     6.210000000     0.652000000     7.120000000
H     6.377000000    -0.432000000     8.163000000
O     2.656000000    -1.781000000     3.560000000
H     2.307000000    -1.314000000     2.800000000
H     2.635000000    -1.136000000     4.267000000
O     8.873000000    -0.513000000     5.786000000
H     9.416000000    -0.498000000     6.574000000
H     8.011000000    -0.223000000     6.085000000
O     7.982000000     3.598000000    -1.218000000
H     7.241000000     3.228000000    -0.737000000
H     8.500000000     2.837000000    -1.481000000
O     6.295000000     0.545000000     5.444000000
H     5.723000000     0.566000000     4.677000000
H     6.972000000     1.195000000     5.255000000
O     4.983000000    -3.094000000     4.090000000
H     4.954000000    -2.699000000     4.962000000
H     4.152000000    -2.842000000     3.686000000
O     6.597000000    -1.473000000     2.749000000
H     6.140000000    -0.647000000     2.904000000
H     6.068000000    -2.128000000     3.204000000
O     5.722000000     3.952000000     5.019000000
H     5.471000000     4.488000000     5.771000000
H     4.895000000     3.606000000     4.684000000
O     1.474000000     0.713000000     7.620000000
H     1.996000000     1.476000000     7.871000000
H     0.628000000     0.851000000     8.047000000
O     8.796000000     0.161000000     3.125000000
H     8.218000000    -0.519000000     2.780000000
H     8.730000000     0.072000000     4.076000000
O     2.919000000     0.048000000     5.500000000
H     3.292000000     0.853000000     5.140000000
H     2.311000000     0.349000000     6.176000000
O     7.113000000     5.439000000     1.326000000
H     7.939000000     4.958000000     1.371000000
H     6.496000000     4.819000000     0.938000000
O     7.294000000    -0.771000000    -0.136000000
H     7.314000000    -1.661000000     0.217000000
H     7.023000000    -0.227000000     0.603000000
O     8.024000000     2.879000000     5.734000000
H     8.274000000     3.277000000     6.568000000
H     7.397000000     3.494000000     5.354000000
O     7.386000000     2.277000000     1.061000000
H     6.589000000     2.176000000     1.583000000
H     8.099000000     2.135000000     1.684000000
O     5.237000000     3.209000000     7.707000000
H     5.924000000     2.997000000     7.074000000
H     5.399000000     2.618000000     8.442000000
O     4.821000000    -1.877000000     6.521000000
H     4.263000000    -1.157000000     6.228000000
H     4.244000000    -2.641000000     6.526000000
O     2.678000000     3.150000000     6.557000000
H     2.769000000     2.857000000     5.651000000
H     3.543000000     3.012000000     6.942000000
O     6.549000000    -3.390000000     0.341000000
H     5.896000000    -2.744000000     0.610000000
H     6.265000000    -4.205000000     0.755000000
