201
-1218.25586
C     2.894000000     3.199000000    -1.613000000
H     2.324000000     3.669000000    -0.815000000
C     2.411000000     2.740000000    -2.805000000
C     3.277000000     2.277000000    -3.822000000
H     2.790000000     1.940000000    -4.734000000
C     0.846000000     2.674000000    -3.049000000
O     0.334000000     3.971000000    -2.652000000
H     0.498000000     1.904000000    -2.345000000
O     0.459000000     2.331000000    -4.365000000
C    -0.587000000     1.512000000    -4.538000000
C    -0.267000000     0.176000000    -4.759000000
H     0.782000000    -0.095000000    -4.846000000
C    -1.216000000    -0.840000000    -4.586000000
O    -0.716000000    -2.121000000    -4.468000000
C    -2.550000000    -0.489000000    -4.328000000
C    -3.619000000    -1.586000000    -4.158000000
H    -4.581000000    -1.177000000    -4.474000000
C    -3.701000000    -2.152000000    -2.744000000
C    -4.420000000    -1.429000000    -1.759000000
H    -5.012000000    -0.553000000    -2.014000000
H    -3.379000000    -2.402000000    -4.843000000
C    -2.864000000     0.837000000    -4.197000000
H    -3.888000000     1.154000000    -4.016000000
C    -1.873000000     1.822000000    -4.287000000
C    -2.202000000     3.274000000    -3.942000000
H    -3.223000000     3.425000000    -4.297000000
H    -1.536000000     3.910000000    -4.529000000
C    -1.977000000     3.580000000    -2.459000000
C    -3.041000000     3.436000000    -1.609000000
H    -3.989000000     3.128000000    -2.044000000
C    -0.751000000     4.025000000    -1.949000000
C    -0.628000000     4.426000000    -0.640000000
H     0.310000000     4.742000000    -0.191000000
C    -1.727000000     4.346000000     0.265000000
O    -1.501000000     4.587000000     1.552000000
C    -1.383000000     3.479000000     2.468000000
C    -0.390000000     3.734000000     3.565000000
C    -0.389000000     2.950000000     4.731000000
H    -1.147000000     2.245000000     5.062000000
C     0.656000000     4.614000000     3.253000000
H     0.690000000     5.317000000     2.425000000
O    -2.655000000     3.290000000     3.033000000
H    -1.151000000     2.563000000     1.904000000
C    -2.976000000     3.854000000    -0.238000000
C    -4.249000000     3.688000000     0.680000000
H    -5.188000000     3.750000000     0.124000000
H    -4.233000000     4.484000000     1.427000000
C    -4.077000000     2.379000000     1.344000000
C    -4.774000000     1.296000000     0.794000000
H    -5.283000000     1.463000000    -0.152000000
C    -3.378000000     2.281000000     2.508000000
C    -3.118000000     0.932000000     2.952000000
H    -2.467000000     0.845000000     3.819000000
C    -3.772000000    -0.152000000     2.358000000
O    -3.351000000    -1.447000000     2.749000000
C    -2.483000000    -2.218000000     1.941000000
C    -1.414000000    -2.849000000     2.826000000
C    -0.746000000    -2.097000000     3.808000000
H    -0.835000000    -1.014000000     3.838000000
C    -1.099000000    -4.209000000     2.586000000
H    -1.683000000    -4.811000000     1.895000000
O    -3.343000000    -3.145000000     1.331000000
H    -1.985000000    -1.539000000     1.234000000
C    -4.692000000     0.007000000     1.297000000
C    -5.341000000    -1.136000000     0.566000000
H    -6.182000000    -0.836000000    -0.063000000
H    -5.753000000    -1.839000000     1.292000000
C    -4.412000000    -1.808000000    -0.385000000
C    -3.546000000    -2.835000000    -0.005000000
C    -2.859000000    -3.567000000    -0.992000000
H    -2.196000000    -4.394000000    -0.750000000
C    -2.945000000    -3.220000000    -2.334000000
O    -1.934000000    -3.647000000    -3.174000000
C    -0.823000000    -2.760000000    -3.163000000
H    -1.072000000    -2.010000000    -2.397000000
C     0.514000000    -3.510000000    -2.829000000
C     1.748000000    -2.934000000    -3.227000000
H     1.656000000    -1.979000000    -3.738000000
C     0.428000000    -4.752000000    -2.275000000
H    -0.499000000    -5.180000000    -1.901000000
C     1.587000000    -5.326000000    -1.863000000
O     1.535000000    -6.569000000    -1.282000000
C     2.885000000    -4.916000000    -2.297000000
H     3.832000000    -5.407000000    -2.090000000
C     2.991000000    -3.652000000    -2.936000000
O     4.228000000    -3.181000000    -3.313000000
C     4.499000000    -2.213000000    -4.290000000
C     4.516000000    -0.898000000    -3.951000000
H     4.299000000    -0.660000000    -2.913000000
C     4.886000000    -2.612000000    -5.528000000
H     4.885000000    -3.675000000    -5.753000000
C     5.371000000    -1.730000000    -6.455000000
H     5.713000000    -2.011000000    -7.448000000
C     5.439000000    -0.418000000    -6.140000000
H     5.865000000     0.317000000    -6.819000000
C     4.983000000     0.018000000    -4.847000000
O     5.317000000     1.282000000    -4.448000000
C     4.554000000     2.057000000    -3.559000000
C     5.046000000     2.438000000    -2.349000000
H     6.118000000     2.311000000    -2.225000000
C     4.276000000     3.128000000    -1.382000000
O     4.823000000     3.715000000    -0.288000000
C     4.291000000     4.753000000     0.397000000
C     3.942000000     4.560000000     1.696000000
H     3.991000000     3.595000000     2.194000000
C     4.380000000     6.014000000    -0.115000000
H     4.764000000     6.290000000    -1.094000000
C     3.777000000     7.122000000     0.529000000
H     3.931000000     8.150000000     0.212000000
C     3.154000000     6.866000000     1.771000000
H     2.743000000     7.695000000     2.342000000
C     3.307000000     5.609000000     2.393000000
O     2.878000000     5.385000000     3.736000000
C     1.743000000     4.747000000     4.106000000
C     1.772000000     3.990000000     5.297000000
H     2.652000000     3.992000000     5.934000000
C     0.728000000     3.136000000     5.544000000
O     0.888000000     2.462000000     6.727000000
C     0.456000000     1.195000000     6.940000000
C     1.031000000     0.231000000     6.103000000
H     1.749000000     0.473000000     5.323000000
C    -0.301000000     0.761000000     8.002000000
H    -0.781000000     1.531000000     8.601000000
C    -0.685000000    -0.548000000     8.123000000
H    -1.499000000    -0.857000000     8.775000000
C    -0.161000000    -1.490000000     7.275000000
H    -0.469000000    -2.532000000     7.307000000
C     0.679000000    -1.080000000     6.294000000
O     1.091000000    -2.052000000     5.377000000
C     0.273000000    -2.734000000     4.509000000
C     0.530000000    -4.088000000     4.366000000
H     1.237000000    -4.688000000     4.933000000
C    -0.140000000    -4.803000000     3.402000000
O     0.214000000    -6.048000000     3.284000000
C     0.161000000    -6.716000000     2.123000000
C    -0.937000000    -7.540000000     1.909000000
H    -1.561000000    -7.825000000     2.752000000
C    -1.257000000    -7.976000000     0.588000000
H    -2.131000000    -8.568000000     0.331000000
C    -0.465000000    -7.604000000    -0.519000000
H    -0.662000000    -7.865000000    -1.555000000
C     0.751000000    -6.932000000    -0.228000000
C     0.969000000    -6.390000000     1.062000000
H     1.831000000    -5.797000000     1.355000000
O     3.971000000    -0.882000000     8.236000000
H     4.116000000     0.064000000     8.228000000
H     4.099000000    -1.152000000     7.327000000
O     6.353000000    -2.588000000     6.153000000
H     6.575000000    -3.076000000     5.360000000
H     5.499000000    -2.200000000     5.964000000
O     3.600000000    -3.974000000     0.588000000
H     2.800000000    -3.742000000     0.116000000
H     3.973000000    -3.134000000     0.855000000
O     9.064000000    -2.316000000     3.571000000
H     8.327000000    -1.705000000     3.602000000
H     9.802000000    -1.819000000     3.925000000
O     6.949000000    -2.744000000     0.025000000
H     6.243000000    -2.266000000     0.459000000
H     7.622000000    -2.083000000    -0.136000000
O     6.898000000    -3.674000000    -2.590000000
H     7.011000000    -3.844000000    -1.654000000
H     6.181000000    -3.041000000    -2.633000000
O     4.118000000     1.365000000     4.658000000
H     4.152000000     0.842000000     3.857000000
H     4.213000000     0.728000000     5.365000000
O     4.951000000    -6.463000000     0.308000000
H     5.485000000    -6.611000000     1.089000000
H     4.509000000    -5.630000000     0.475000000
O     0.869000000    -2.838000000     0.585000000
H     0.369000000    -3.247000000     1.291000000
H     0.693000000    -1.902000000     0.678000000
O     7.230000000    -0.438000000     3.724000000
H     6.422000000    -0.229000000     3.257000000
H     7.481000000     0.382000000     4.149000000
O     5.986000000     3.565000000     5.854000000
H     5.964000000     4.457000000     6.202000000
H     5.220000000     3.513000000     5.283000000
O     6.933000000     2.620000000     1.400000000
H     6.626000000     3.452000000     1.040000000
H     7.285000000     2.847000000     2.261000000
O     5.398000000     1.292000000     7.576000000
H     4.969000000     2.057000000     7.959000000
H     5.789000000     1.617000000     6.765000000
O     7.701000000    -5.450000000     0.191000000
H     7.635000000    -4.503000000     0.311000000
H     7.404000000    -5.818000000     1.023000000
O     7.074000000     0.140000000     0.228000000
H     6.329000000    -0.345000000     0.582000000
H     7.056000000     0.978000000     0.691000000
O     8.317000000     0.642000000    -2.321000000
H     8.224000000    -0.196000000    -2.774000000
H     8.018000000     0.467000000    -1.429000000
O     3.832000000    -1.456000000     5.452000000
H     2.875000000    -1.434000000     5.477000000
H     4.048000000    -1.417000000     4.520000000
O     6.292000000    -5.924000000     2.730000000
H     5.796000000    -6.299000000     3.458000000
H     6.298000000    -4.983000000     2.904000000
O     6.367000000    -3.246000000     2.988000000
H     7.245000000    -2.864000000     2.970000000
H     5.778000000    -2.496000000     2.903000000
