201
-1238.50957
C     4.006000000     1.258000000    -3.385000000
H     4.200000000     2.046000000    -2.662000000
C     2.698000000     1.017000000    -3.800000000
C     2.507000000    -0.102000000    -4.593000000
H     1.520000000    -0.440000000    -4.898000000
C     1.548000000     1.992000000    -3.363000000
O     1.894000000     3.379000000    -3.025000000
H     0.915000000     1.706000000    -2.511000000
O     0.576000000     2.077000000    -4.454000000
C    -0.739000000     2.089000000    -4.132000000
C    -1.430000000     0.852000000    -4.220000000
H    -0.966000000    -0.041000000    -4.633000000
C    -2.760000000     0.720000000    -3.797000000
O    -3.187000000    -0.558000000    -3.687000000
C    -3.393000000     1.806000000    -3.175000000
C    -4.777000000     1.737000000    -2.464000000
H    -5.217000000     2.735000000    -2.516000000
C    -4.747000000     1.166000000    -1.064000000
C    -4.566000000     2.000000000     0.094000000
H    -4.526000000     3.074000000    -0.069000000
H    -5.363000000     1.075000000    -3.105000000
C    -2.694000000     3.038000000    -2.982000000
H    -3.135000000     3.798000000    -2.342000000
C    -1.308000000     3.219000000    -3.392000000
C    -0.709000000     4.585000000    -3.150000000
H    -1.472000000     5.362000000    -3.057000000
H    -0.138000000     4.843000000    -4.044000000
C     0.152000000     4.528000000    -1.890000000
C    -0.414000000     4.930000000    -0.645000000
H    -1.436000000     5.299000000    -0.618000000
C     1.387000000     3.973000000    -1.906000000
C     2.144000000     3.963000000    -0.761000000
H     3.114000000     3.472000000    -0.791000000
C     1.650000000     4.448000000     0.498000000
O     2.388000000     4.291000000     1.679000000
C     2.070000000     3.013000000     2.199000000
C     3.363000000     2.210000000     2.510000000
C     3.246000000     1.260000000     3.513000000
H     2.391000000     1.157000000     4.177000000
C     4.521000000     2.261000000     1.766000000
H     4.604000000     2.979000000     0.954000000
O     1.307000000     3.246000000     3.411000000
H     1.604000000     2.352000000     1.454000000
C     0.382000000     4.927000000     0.514000000
C    -0.278000000     5.375000000     1.860000000
H    -1.092000000     6.089000000     1.711000000
H     0.456000000     5.884000000     2.489000000
C    -0.844000000     4.045000000     2.451000000
C    -2.225000000     3.830000000     2.326000000
H    -2.836000000     4.421000000     1.648000000
C    -0.071000000     3.193000000     3.268000000
C    -0.723000000     2.079000000     3.876000000
H    -0.173000000     1.435000000     4.558000000
C    -2.081000000     1.805000000     3.693000000
O    -2.557000000     0.536000000     4.109000000
C    -2.762000000    -0.516000000     3.128000000
C    -2.281000000    -1.856000000     3.667000000
C    -1.095000000    -1.992000000     4.440000000
H    -0.441000000    -1.142000000     4.617000000
C    -2.971000000    -3.028000000     3.471000000
H    -3.849000000    -2.981000000     2.831000000
O    -4.125000000    -0.590000000     2.739000000
H    -2.163000000    -0.264000000     2.241000000
C    -2.821000000     2.659000000     2.816000000
C    -4.289000000     2.475000000     2.531000000
H    -4.810000000     3.424000000     2.391000000
H    -4.778000000     2.056000000     3.413000000
C    -4.481000000     1.498000000     1.395000000
C    -4.433000000     0.120000000     1.603000000
C    -4.526000000    -0.719000000     0.473000000
H    -4.352000000    -1.786000000     0.586000000
C    -4.793000000    -0.204000000    -0.805000000
O    -4.541000000    -1.019000000    -1.859000000
C    -3.189000000    -1.127000000    -2.366000000
H    -2.518000000    -0.520000000    -1.741000000
C    -2.691000000    -2.641000000    -2.322000000
C    -1.508000000    -3.061000000    -2.984000000
H    -0.893000000    -2.320000000    -3.488000000
C    -3.343000000    -3.614000000    -1.643000000
H    -4.198000000    -3.397000000    -1.008000000
C    -2.921000000    -4.969000000    -1.706000000
O    -3.570000000    -5.969000000    -1.021000000
C    -1.782000000    -5.353000000    -2.387000000
H    -1.453000000    -6.381000000    -2.520000000
C    -1.050000000    -4.405000000    -3.062000000
O     0.127000000    -4.837000000    -3.742000000
C     0.557000000    -4.123000000    -4.807000000
C     1.828000000    -3.556000000    -4.872000000
H     2.548000000    -3.752000000    -4.082000000
C    -0.315000000    -3.758000000    -5.816000000
H    -1.328000000    -4.124000000    -5.666000000
C    -0.053000000    -2.926000000    -6.829000000
H    -0.906000000    -2.585000000    -7.411000000
C     1.154000000    -2.243000000    -6.845000000
H     1.388000000    -1.424000000    -7.522000000
C     2.155000000    -2.647000000    -5.953000000
O     3.369000000    -1.946000000    -5.942000000
C     3.570000000    -0.900000000    -4.985000000
C     4.788000000    -0.722000000    -4.428000000
H     5.685000000    -1.244000000    -4.751000000
C     5.041000000     0.359000000    -3.615000000
O     6.320000000     0.625000000    -3.298000000
C     6.707000000     1.389000000    -2.253000000
C     6.424000000     1.165000000    -0.928000000
H     5.664000000     0.455000000    -0.610000000
C     7.522000000     2.448000000    -2.546000000
H     7.771000000     2.603000000    -3.592000000
C     8.008000000     3.275000000    -1.530000000
H     8.672000000     4.084000000    -1.826000000
C     7.797000000     2.902000000    -0.202000000
H     8.331000000     3.459000000     0.563000000
C     7.067000000     1.817000000     0.102000000
O     6.849000000     1.585000000     1.421000000
C     5.646000000     1.399000000     2.048000000
C     5.522000000     0.489000000     3.159000000
H     6.398000000    -0.094000000     3.432000000
C     4.334000000     0.412000000     3.803000000
O     4.286000000    -0.494000000     4.851000000
C     3.202000000    -0.826000000     5.634000000
C     2.533000000    -1.989000000     5.312000000
H     2.950000000    -2.645000000     4.553000000
C     2.663000000     0.069000000     6.577000000
H     3.172000000     0.964000000     6.926000000
C     1.534000000    -0.283000000     7.292000000
H     1.024000000     0.321000000     8.039000000
C     0.915000000    -1.501000000     7.032000000
H    -0.075000000    -1.717000000     7.426000000
C     1.369000000    -2.347000000     5.982000000
O     0.586000000    -3.450000000     5.597000000
C    -0.652000000    -3.207000000     4.973000000
C    -1.400000000    -4.290000000     4.752000000
H    -1.043000000    -5.271000000     5.056000000
C    -2.509000000    -4.258000000     3.912000000
O    -3.189000000    -5.407000000     3.759000000
C    -4.001000000    -5.501000000     2.589000000
C    -5.320000000    -5.251000000     2.672000000
H    -5.768000000    -4.959000000     3.619000000
C    -6.199000000    -5.353000000     1.571000000
H    -7.259000000    -5.136000000     1.682000000
C    -5.582000000    -5.676000000     0.328000000
H    -6.196000000    -5.760000000    -0.565000000
C    -4.165000000    -5.764000000     0.244000000
C    -3.360000000    -5.709000000     1.370000000
H    -2.307000000    -5.978000000     1.350000000
O     0.187000000    -5.953000000    -0.178000000
H     1.085000000    -5.620000000    -0.191000000
H    -0.153000000    -5.760000000    -1.052000000
O     1.734000000    -9.148000000     1.840000000
H     2.600000000    -9.326000000     2.208000000
H     1.908000000    -8.628000000     1.056000000
O     5.942000000    -6.702000000    -3.472000000
H     5.063000000    -6.786000000    -3.102000000
H     6.341000000    -7.562000000    -3.339000000
O     2.244000000    -7.414000000    -4.487000000
H     2.631000000    -7.165000000    -3.648000000
H     2.863000000    -7.090000000    -5.142000000
O     3.585000000    -6.859000000    -2.041000000
H     3.320000000    -5.984000000    -1.757000000
H     3.748000000    -7.335000000    -1.226000000
O     4.556000000    -4.368000000    -7.491000000
H     4.772000000    -3.905000000    -8.301000000
H     4.215000000    -3.687000000    -6.910000000
O     7.669000000    -2.703000000     0.649000000
H     6.727000000    -2.538000000     0.610000000
H     7.955000000    -2.672000000    -0.264000000
O     5.764000000    -4.077000000    -3.280000000
H     4.907000000    -4.034000000    -2.855000000
H     6.020000000    -4.996000000    -3.210000000
O     2.153000000    -4.605000000     2.189000000
H     1.270000000    -4.448000000     2.523000000
H     2.082000000    -4.453000000     1.246000000
O     3.358000000    -6.741000000     3.611000000
H     3.171000000    -6.342000000     4.461000000
H     3.156000000    -6.055000000     2.975000000
O    -1.287000000    -8.374000000     0.220000000
H    -1.744000000    -8.313000000     1.059000000
H    -0.786000000    -7.560000000     0.160000000
O     0.107000000    -6.923000000    -6.066000000
H     0.514000000    -6.300000000    -6.668000000
H     0.814000000    -7.185000000    -5.477000000
O     4.143000000    -8.035000000     0.323000000
H     4.528000000    -7.221000000     0.648000000
H     4.027000000    -8.574000000     1.106000000
O     8.001000000    -2.910000000    -2.073000000
H     8.529000000    -3.706000000    -2.027000000
H     7.187000000    -3.186000000    -2.493000000
O     4.934000000    -5.244000000     0.525000000
H     4.155000000    -4.989000000     0.031000000
H     4.773000000    -4.916000000     1.410000000
O     9.299000000    -5.253000000    -2.207000000
H     8.595000000    -5.715000000    -1.753000000
H     9.489000000    -5.797000000    -2.971000000
O     5.617000000    -9.469000000    -1.368000000
H     5.197000000    -8.737000000    -0.917000000
H     4.921000000    -9.851000000    -1.903000000
O     4.497000000    -6.615000000    -6.019000000
H     5.037000000    -6.187000000    -5.355000000
H     4.566000000    -6.047000000    -6.787000000
O     7.571000000    -5.536000000    -0.061000000
H     6.634000000    -5.491000000     0.129000000
H     7.876000000    -4.633000000     0.021000000
