201
-1231.92134
C     4.333000000     0.680000000    -3.020000000
H     4.546000000     1.582000000    -2.452000000
C     3.180000000     0.527000000    -3.832000000
C     2.956000000    -0.693000000    -4.515000000
H     2.019000000    -0.856000000    -5.041000000
C     2.047000000     1.574000000    -3.817000000
O     2.668000000     2.893000000    -3.475000000
H     1.414000000     1.276000000    -2.968000000
O     1.137000000     1.693000000    -4.943000000
C    -0.199000000     1.773000000    -4.548000000
C    -0.965000000     0.618000000    -4.464000000
H    -0.544000000    -0.341000000    -4.754000000
C    -2.222000000     0.662000000    -3.967000000
O    -2.875000000    -0.554000000    -3.906000000
C    -2.779000000     1.838000000    -3.564000000
C    -4.248000000     1.952000000    -3.078000000
H    -4.501000000     3.012000000    -3.148000000
C    -4.361000000     1.453000000    -1.639000000
C    -4.372000000     2.355000000    -0.590000000
H    -4.361000000     3.421000000    -0.803000000
H    -4.925000000     1.339000000    -3.677000000
C    -2.048000000     3.044000000    -3.710000000
H    -2.518000000     3.975000000    -3.405000000
C    -0.766000000     3.011000000    -4.113000000
C     0.110000000     4.277000000    -3.927000000
H    -0.452000000     5.208000000    -4.028000000
H     0.805000000     4.302000000    -4.769000000
C     0.821000000     4.218000000    -2.586000000
C     0.252000000     4.869000000    -1.443000000
H    -0.748000000     5.287000000    -1.517000000
C     2.106000000     3.578000000    -2.432000000
C     2.690000000     3.480000000    -1.139000000
H     3.605000000     2.923000000    -0.950000000
C     2.076000000     4.022000000     0.016000000
O     2.613000000     3.814000000     1.270000000
C     2.061000000     2.900000000     2.268000000
C     3.200000000     2.147000000     2.962000000
C     2.946000000     1.424000000     4.116000000
H     1.934000000     1.527000000     4.500000000
C     4.428000000     1.883000000     2.296000000
H     4.633000000     2.337000000     1.330000000
O     1.278000000     3.640000000     3.230000000
H     1.481000000     2.115000000     1.762000000
C     0.856000000     4.650000000    -0.114000000
C     0.199000000     5.292000000     1.090000000
H    -0.368000000     6.189000000     0.834000000
H     1.004000000     5.697000000     1.707000000
C    -0.671000000     4.286000000     1.917000000
C    -2.036000000     4.195000000     1.699000000
H    -2.561000000     4.774000000     0.944000000
C    -0.085000000     3.533000000     2.966000000
C    -0.864000000     2.508000000     3.549000000
H    -0.398000000     1.748000000     4.171000000
C    -2.198000000     2.379000000     3.173000000
O    -2.903000000     1.280000000     3.707000000
C    -3.133000000     0.147000000     2.856000000
C    -2.881000000    -1.186000000     3.557000000
C    -1.814000000    -1.374000000     4.377000000
H    -1.146000000    -0.536000000     4.558000000
C    -3.682000000    -2.330000000     3.299000000
H    -4.509000000    -2.278000000     2.596000000
O    -4.525000000     0.186000000     2.375000000
H    -2.410000000     0.150000000     2.027000000
C    -2.851000000     3.235000000     2.335000000
C    -4.267000000     3.064000000     1.821000000
H    -4.520000000     4.075000000     1.495000000
H    -5.004000000     2.864000000     2.602000000
C    -4.444000000     1.991000000     0.784000000
C    -4.656000000     0.653000000     1.070000000
C    -4.771000000    -0.232000000     0.039000000
H    -4.978000000    -1.257000000     0.334000000
C    -4.547000000     0.134000000    -1.290000000
O    -4.330000000    -0.950000000    -2.113000000
C    -2.990000000    -1.099000000    -2.616000000
H    -2.247000000    -0.602000000    -1.973000000
C    -2.584000000    -2.563000000    -2.496000000
C    -1.359000000    -3.041000000    -2.952000000
H    -0.632000000    -2.333000000    -3.342000000
C    -3.449000000    -3.462000000    -1.834000000
H    -4.309000000    -3.032000000    -1.326000000
C    -3.063000000    -4.778000000    -1.694000000
O    -3.772000000    -5.686000000    -0.960000000
C    -1.787000000    -5.175000000    -2.101000000
H    -1.464000000    -6.148000000    -1.739000000
C    -0.958000000    -4.359000000    -2.831000000
O     0.299000000    -4.695000000    -3.068000000
C     0.950000000    -4.541000000    -4.247000000
C     2.152000000    -3.853000000    -4.109000000
H     2.530000000    -3.657000000    -3.109000000
C     0.497000000    -4.965000000    -5.472000000
H    -0.432000000    -5.521000000    -5.561000000
C     1.186000000    -4.639000000    -6.586000000
H     0.838000000    -4.950000000    -7.568000000
C     2.351000000    -3.806000000    -6.509000000
H     2.756000000    -3.356000000    -7.411000000
C     2.809000000    -3.400000000    -5.253000000
O     3.976000000    -2.737000000    -5.153000000
C     4.070000000    -1.491000000    -4.577000000
C     5.349000000    -1.217000000    -4.035000000
H     6.192000000    -1.888000000    -4.174000000
C     5.391000000    -0.171000000    -3.104000000
O     6.526000000     0.164000000    -2.515000000
C     6.741000000     0.968000000    -1.426000000
C     6.511000000     0.474000000    -0.158000000
H     5.967000000    -0.451000000     0.016000000
C     7.410000000     2.184000000    -1.544000000
H     7.640000000     2.599000000    -2.522000000
C     7.782000000     2.949000000    -0.376000000
H     8.231000000     3.933000000    -0.485000000
C     7.451000000     2.432000000     0.859000000
H     7.591000000     3.007000000     1.771000000
C     6.794000000     1.192000000     0.996000000
O     6.556000000     0.694000000     2.217000000
C     5.353000000     0.990000000     2.812000000
C     5.138000000     0.442000000     4.067000000
H     5.866000000    -0.219000000     4.529000000
C     3.889000000     0.596000000     4.645000000
O     3.586000000    -0.197000000     5.780000000
C     2.287000000    -0.377000000     6.230000000
C     1.537000000    -1.453000000     5.953000000
H     1.845000000    -2.135000000     5.164000000
C     1.933000000     0.404000000     7.324000000
H     2.650000000     1.156000000     7.642000000
C     0.670000000     0.282000000     7.862000000
H     0.317000000     0.875000000     8.702000000
C    -0.188000000    -0.742000000     7.396000000
H    -1.166000000    -0.854000000     7.858000000
C     0.239000000    -1.613000000     6.396000000
O    -0.579000000    -2.702000000     6.038000000
C    -1.600000000    -2.606000000     5.026000000
C    -2.405000000    -3.703000000     4.763000000
H    -2.441000000    -4.584000000     5.399000000
C    -3.442000000    -3.563000000     3.867000000
O    -4.301000000    -4.620000000     3.682000000
C    -4.881000000    -4.907000000     2.482000000
C    -6.265000000    -4.857000000     2.289000000
H    -6.847000000    -4.491000000     3.131000000
C    -6.869000000    -5.168000000     1.037000000
H    -7.954000000    -5.180000000     0.968000000
C    -5.949000000    -5.383000000    -0.012000000
H    -6.338000000    -5.598000000    -1.004000000
C    -4.539000000    -5.350000000     0.126000000
C    -4.029000000    -5.193000000     1.425000000
H    -2.963000000    -5.368000000     1.548000000
O     3.474000000    -7.277000000     1.378000000
H     2.890000000    -7.685000000     0.739000000
H     3.353000000    -6.337000000     1.246000000
O     7.964000000    -3.916000000     2.023000000
H     7.587000000    -4.441000000     1.316000000
H     8.285000000    -4.560000000     2.654000000
O     1.759000000    -8.136000000     3.577000000
H     2.507000000    -8.172000000     2.981000000
H     2.121000000    -8.374000000     4.431000000
O     1.178000000    -7.670000000    -0.718000000
H     1.372000000    -6.765000000    -0.471000000
H     0.352000000    -7.867000000    -0.276000000
O     0.304000000    -8.163000000    -3.431000000
H    -0.619000000    -7.930000000    -3.528000000
H     0.564000000    -7.768000000    -2.598000000
O     3.265000000    -7.254000000    -4.194000000
H     2.495000000    -6.758000000    -3.919000000
H     3.082000000    -7.499000000    -5.101000000
O     4.691000000    -3.942000000     1.699000000
H     3.773000000    -3.678000000     1.628000000
H     4.800000000    -4.611000000     1.024000000
O     5.709000000    -3.673000000    -1.681000000
H     5.044000000    -3.785000000    -1.002000000
H     6.185000000    -4.504000000    -1.690000000
O     2.951000000    -9.238000000    -2.316000000
H     3.256000000    -8.809000000    -3.115000000
H     2.443000000    -8.565000000    -1.862000000
O     3.360000000    -5.576000000     5.158000000
H     3.077000000    -5.137000000     4.356000000
H     2.611000000    -5.501000000     5.750000000
O    -0.732000000    -6.382000000     2.294000000
H    -0.505000000    -7.265000000     2.003000000
H    -0.445000000    -5.813000000     1.580000000
O     5.806000000    -8.287000000    -0.496000000
H     5.747000000    -8.929000000    -1.204000000
H     4.936000000    -7.891000000    -0.459000000
O     7.351000000    -6.261000000     0.471000000
H     6.858000000    -6.724000000    -0.206000000
H     6.833000000    -6.379000000     1.267000000
O     2.064000000    -5.076000000     2.914000000
H     1.242000000    -5.387000000     3.293000000
H     1.951000000    -5.191000000     1.971000000
O     5.897000000    -7.155000000     2.670000000
H     5.391000000    -7.171000000     3.483000000
H     5.283000000    -7.456000000     2.000000000
O     5.911000000    -2.692000000     3.890000000
H     6.833000000    -2.610000000     3.645000000
H     5.464000000    -2.904000000     3.071000000
O     6.352000000    -6.501000000    -4.148000000
H     6.430000000    -6.113000000    -3.277000000
H     5.738000000    -7.226000000    -4.033000000
O     4.111000000    -6.382000000    -1.816000000
H     3.912000000    -6.327000000    -2.751000000
H     3.763000000    -5.569000000    -1.450000000
O     8.100000000    -2.586000000    -2.481000000
H     8.065000000    -1.630000000    -2.453000000
H     7.202000000    -2.864000000    -2.298000000
