201
-1246.75185
C     4.745000000     0.409000000    -2.936000000
H     4.954000000     1.294000000    -2.340000000
C     3.574000000     0.232000000    -3.632000000
C     3.342000000    -0.900000000    -4.361000000
H     2.431000000    -1.027000000    -4.941000000
C     2.487000000     1.224000000    -3.543000000
O     2.921000000     2.558000000    -3.288000000
H     1.832000000     0.897000000    -2.723000000
O     1.670000000     1.256000000    -4.751000000
C     0.293000000     1.467000000    -4.501000000
C    -0.440000000     0.257000000    -4.541000000
H     0.072000000    -0.642000000    -4.874000000
C    -1.802000000     0.252000000    -4.156000000
O    -2.469000000    -0.944000000    -3.935000000
C    -2.451000000     1.422000000    -3.835000000
C    -3.892000000     1.440000000    -3.436000000
H    -4.209000000     2.451000000    -3.700000000
C    -4.067000000     1.213000000    -1.932000000
C    -4.301000000     2.307000000    -1.122000000
H    -4.240000000     3.302000000    -1.555000000
H    -4.501000000     0.756000000    -4.031000000
C    -1.756000000     2.612000000    -3.718000000
H    -2.170000000     3.555000000    -3.370000000
C    -0.343000000     2.665000000    -4.018000000
C     0.385000000     3.947000000    -3.992000000
H    -0.295000000     4.792000000    -4.120000000
H     1.048000000     4.009000000    -4.857000000
C     1.037000000     4.029000000    -2.650000000
C     0.370000000     4.703000000    -1.608000000
H    -0.525000000     5.284000000    -1.816000000
C     2.236000000     3.348000000    -2.365000000
C     2.756000000     3.443000000    -1.060000000
H     3.647000000     2.884000000    -0.783000000
C     2.052000000     4.125000000    -0.063000000
O     2.587000000     4.136000000     1.198000000
C     1.916000000     3.240000000     2.086000000
C     2.735000000     2.123000000     2.743000000
C     2.572000000     1.870000000     4.113000000
H     1.882000000     2.458000000     4.714000000
C     3.542000000     1.245000000     2.050000000
H     3.625000000     1.453000000     0.986000000
O     1.101000000     3.979000000     2.932000000
H     1.188000000     2.667000000     1.493000000
C     0.909000000     4.836000000    -0.323000000
C     0.199000000     5.617000000     0.750000000
H    -0.380000000     6.450000000     0.344000000
H     0.896000000     6.129000000     1.417000000
C    -0.744000000     4.685000000     1.547000000
C    -2.033000000     4.397000000     1.186000000
H    -2.411000000     4.929000000     0.317000000
C    -0.206000000     3.961000000     2.641000000
C    -1.051000000     2.961000000     3.326000000
H    -0.748000000     2.402000000     4.208000000
C    -2.369000000     2.745000000     2.872000000
O    -3.141000000     1.766000000     3.479000000
C    -3.307000000     0.539000000     2.684000000
C    -3.151000000    -0.594000000     3.647000000
C    -2.312000000    -0.506000000     4.721000000
H    -1.702000000     0.376000000     4.896000000
C    -3.860000000    -1.762000000     3.362000000
H    -4.679000000    -1.881000000     2.657000000
O    -4.537000000     0.549000000     2.067000000
H    -2.498000000     0.560000000     1.939000000
C    -2.837000000     3.461000000     1.804000000
C    -4.200000000     3.347000000     1.229000000
H    -4.402000000     4.280000000     0.699000000
H    -5.018000000     3.279000000     1.949000000
C    -4.370000000     2.166000000     0.286000000
C    -4.502000000     0.843000000     0.776000000
C    -4.413000000    -0.276000000    -0.092000000
H    -4.457000000    -1.291000000     0.295000000
C    -4.097000000    -0.059000000    -1.415000000
O    -3.949000000    -1.184000000    -2.222000000
C    -2.592000000    -1.483000000    -2.583000000
H    -1.922000000    -0.876000000    -1.956000000
C    -2.246000000    -2.957000000    -2.488000000
C    -1.133000000    -3.499000000    -3.135000000
H    -0.549000000    -2.890000000    -3.820000000
C    -2.857000000    -3.693000000    -1.501000000
H    -3.651000000    -3.311000000    -0.864000000
C    -2.375000000    -4.987000000    -1.208000000
O    -2.925000000    -5.761000000    -0.200000000
C    -1.333000000    -5.566000000    -2.002000000
H    -1.098000000    -6.618000000    -1.860000000
C    -0.704000000    -4.800000000    -2.930000000
O     0.436000000    -5.372000000    -3.554000000
C     0.980000000    -4.748000000    -4.604000000
C     2.252000000    -4.258000000    -4.444000000
H     2.653000000    -4.120000000    -3.443000000
C     0.311000000    -4.638000000    -5.843000000
H    -0.598000000    -5.204000000    -6.029000000
C     1.018000000    -4.015000000    -6.911000000
H     0.611000000    -4.130000000    -7.912000000
C     2.300000000    -3.447000000    -6.760000000
H     2.839000000    -3.123000000    -7.647000000
C     2.892000000    -3.596000000    -5.517000000
O     4.142000000    -3.001000000    -5.303000000
C     4.347000000    -1.922000000    -4.444000000
C     5.539000000    -1.674000000    -3.895000000
H     6.330000000    -2.383000000    -4.122000000
C     5.736000000    -0.561000000    -3.098000000
O     6.980000000    -0.386000000    -2.445000000
C     6.935000000     0.111000000    -1.182000000
C     6.134000000    -0.512000000    -0.177000000
H     5.600000000    -1.403000000    -0.497000000
C     7.708000000     1.190000000    -0.783000000
H     8.418000000     1.606000000    -1.494000000
C     7.598000000     1.690000000     0.492000000
H     8.080000000     2.646000000     0.682000000
C     6.791000000     1.168000000     1.447000000
H     6.754000000     1.706000000     2.390000000
C     6.001000000     0.070000000     1.052000000
O     5.121000000    -0.569000000     1.927000000
C     4.306000000     0.245000000     2.698000000
C     4.059000000     0.011000000     4.067000000
H     4.538000000    -0.839000000     4.546000000
C     3.247000000     0.827000000     4.753000000
O     3.016000000     0.604000000     6.156000000
C     1.784000000     0.465000000     6.716000000
C     0.842000000    -0.518000000     6.331000000
H     1.139000000    -1.286000000     5.621000000
C     1.425000000     1.445000000     7.621000000
H     2.132000000     2.192000000     7.970000000
C     0.103000000     1.543000000     8.129000000
H    -0.136000000     2.271000000     8.900000000
C    -0.833000000     0.530000000     7.772000000
H    -1.840000000     0.530000000     8.184000000
C    -0.423000000    -0.596000000     7.039000000
O    -1.245000000    -1.648000000     6.742000000
C    -2.144000000    -1.611000000     5.616000000
C    -2.843000000    -2.794000000     5.275000000
H    -2.726000000    -3.686000000     5.885000000
C    -3.764000000    -2.851000000     4.254000000
O    -4.437000000    -4.066000000     3.956000000
C    -4.762000000    -4.403000000     2.691000000
C    -6.053000000    -4.661000000     2.317000000
H    -6.850000000    -4.269000000     2.944000000
C    -6.380000000    -5.190000000     1.047000000
H    -7.447000000    -5.230000000     0.845000000
C    -5.353000000    -5.542000000     0.161000000
H    -5.566000000    -5.936000000    -0.829000000
C    -4.019000000    -5.374000000     0.548000000
C    -3.776000000    -4.745000000     1.815000000
H    -2.712000000    -4.679000000     2.031000000
O    -2.100000000    -8.166000000     1.544000000
H    -2.403000000    -7.969000000     0.658000000
H    -1.146000000    -8.126000000     1.485000000
O     4.716000000    -4.562000000     1.751000000
H     5.536000000    -4.675000000     1.270000000
H     4.041000000    -4.882000000     1.152000000
O     3.178000000    -9.593000000    -1.609000000
H     3.283000000   -10.543000000    -1.562000000
H     3.357000000    -9.288000000    -0.720000000
O     0.853000000    -8.131000000     0.556000000
H     1.281000000    -7.275000000     0.546000000
H     1.397000000    -8.663000000     1.139000000
O     1.854000000    -1.861000000     3.330000000
H     2.380000000    -1.808000000     2.532000000
H     0.949000000    -1.876000000     3.020000000
O    -0.604000000    -9.486000000    -1.439000000
H    -0.277000000    -9.183000000    -0.592000000
H    -0.048000000    -9.045000000    -2.081000000
O    -0.119000000    -7.239000000     4.150000000
H    -1.042000000    -7.358000000     3.927000000
H     0.136000000    -6.436000000     3.697000000
O     5.545000000    -4.066000000    -2.134000000
H     5.955000000    -3.964000000    -1.275000000
H     4.658000000    -4.369000000    -1.941000000
O     3.106000000    -4.090000000     4.007000000
H     2.815000000    -3.187000000     3.874000000
H     3.715000000    -4.253000000     3.287000000
O     4.396000000    -7.146000000     0.724000000
H     4.772000000    -6.685000000     1.474000000
H     3.603000000    -6.654000000     0.514000000
O     5.702000000    -5.366000000    -4.420000000
H     5.816000000    -4.655000000    -3.790000000
H     5.077000000    -5.959000000    -4.001000000
O     6.885000000    -4.980000000     0.458000000
H     7.580000000    -4.441000000     0.081000000
H     6.989000000    -5.833000000     0.038000000
O     6.494000000    -9.050000000     0.306000000
H     5.737000000    -8.505000000     0.518000000
H     6.871000000    -9.279000000     1.156000000
O     0.807000000    -5.193000000     2.901000000
H     1.567000000    -4.885000000     3.395000000
H     1.165000000    -5.461000000     2.055000000
O     1.395000000    -7.949000000    -2.495000000
H     1.731000000    -7.056000000    -2.582000000
H     2.144000000    -8.458000000    -2.188000000
O     4.138000000    -6.912000000    -2.639000000
H     3.915000000    -6.269000000    -1.966000000
H     4.304000000    -7.720000000    -2.152000000
O     6.063000000    -3.441000000     3.974000000
H     5.464000000    -3.860000000     4.592000000
H     5.551000000    -3.347000000     3.171000000
O     2.738000000    -7.909000000    -4.880000000
H     1.978000000    -8.296000000    -4.445000000
H     3.244000000    -7.513000000    -4.170000000
O     3.189000000    -9.418000000     1.441000000
H     3.811000000    -8.737000000     1.184000000
H     3.439000000    -9.645000000     2.336000000
