201
-1227.59451
C     4.605000000     0.795000000    -2.467000000
H     4.946000000     1.453000000    -1.671000000
C     3.410000000     1.085000000    -3.089000000
C     3.109000000     0.224000000    -4.179000000
H     2.296000000     0.420000000    -4.873000000
C     2.418000000     2.220000000    -2.741000000
O     3.151000000     3.198000000    -2.047000000
H     1.788000000     1.718000000    -1.991000000
O     1.682000000     2.692000000    -3.842000000
C     0.340000000     2.923000000    -3.629000000
C    -0.529000000     1.971000000    -4.095000000
H    -0.122000000     1.119000000    -4.634000000
C    -1.823000000     2.045000000    -3.730000000
O    -2.501000000     0.929000000    -4.126000000
C    -2.416000000     3.086000000    -3.058000000
C    -3.882000000     3.148000000    -2.599000000
H    -4.155000000     4.202000000    -2.509000000
C    -4.162000000     2.325000000    -1.351000000
C    -4.188000000     2.973000000    -0.099000000
H    -4.114000000     4.057000000    -0.065000000
H    -4.456000000     2.792000000    -3.457000000
C    -1.502000000     4.009000000    -2.560000000
H    -1.950000000     4.788000000    -1.948000000
C    -0.109000000     3.941000000    -2.779000000
C     0.842000000     4.952000000    -2.150000000
H     0.307000000     5.886000000    -1.964000000
H     1.654000000     5.201000000    -2.836000000
C     1.404000000     4.392000000    -0.842000000
C     0.833000000     4.820000000     0.402000000
H     0.055000000     5.576000000     0.462000000
C     2.533000000     3.551000000    -0.813000000
C     3.098000000     3.125000000     0.419000000
H     3.948000000     2.451000000     0.343000000
C     2.505000000     3.510000000     1.638000000
O     2.991000000     2.948000000     2.840000000
C     2.169000000     1.885000000     3.324000000
C     3.018000000     0.680000000     3.763000000
C     2.670000000    -0.023000000     4.889000000
H     1.938000000     0.412000000     5.565000000
C     4.049000000     0.164000000     2.925000000
H     4.374000000     0.687000000     2.029000000
O     1.226000000     2.337000000     4.354000000
H     1.561000000     1.549000000     2.471000000
C     1.383000000     4.384000000     1.612000000
C     0.590000000     4.766000000     2.929000000
H     0.037000000     5.697000000     2.791000000
H     1.274000000     4.975000000     3.754000000
C    -0.422000000     3.692000000     3.222000000
C    -1.722000000     3.806000000     2.698000000
H    -2.016000000     4.633000000     2.056000000
C    -0.067000000     2.522000000     3.898000000
C    -0.925000000     1.503000000     4.062000000
H    -0.569000000     0.609000000     4.568000000
C    -2.173000000     1.584000000     3.503000000
O    -3.050000000     0.510000000     3.577000000
C    -3.201000000    -0.455000000     2.551000000
C    -3.110000000    -1.867000000     3.021000000
C    -2.176000000    -2.200000000     4.002000000
H    -1.708000000    -1.458000000     4.645000000
C    -3.742000000    -2.871000000     2.307000000
H    -4.390000000    -2.675000000     1.457000000
O    -4.488000000    -0.085000000     1.967000000
H    -2.443000000    -0.164000000     1.809000000
C    -2.573000000     2.729000000     2.796000000
C    -4.035000000     2.895000000     2.325000000
H    -4.265000000     3.960000000     2.241000000
H    -4.827000000     2.590000000     3.012000000
C    -4.255000000     2.164000000     1.037000000
C    -4.555000000     0.803000000     0.868000000
C    -4.704000000     0.215000000    -0.393000000
H    -4.960000000    -0.840000000    -0.462000000
C    -4.442000000     0.901000000    -1.522000000
O    -4.300000000     0.243000000    -2.688000000
C    -2.899000000     0.017000000    -3.104000000
H    -2.295000000     0.196000000    -2.202000000
C    -2.689000000    -1.417000000    -3.642000000
C    -1.946000000    -1.653000000    -4.805000000
H    -1.397000000    -0.914000000    -5.383000000
C    -3.251000000    -2.460000000    -2.876000000
H    -3.847000000    -2.237000000    -1.995000000
C    -3.039000000    -3.749000000    -3.350000000
O    -3.509000000    -4.913000000    -2.699000000
C    -2.284000000    -4.031000000    -4.497000000
H    -2.075000000    -5.039000000    -4.848000000
C    -1.683000000    -2.980000000    -5.196000000
O    -0.964000000    -3.230000000    -6.345000000
C     0.195000000    -2.624000000    -6.704000000
C     1.318000000    -2.611000000    -5.831000000
H     1.401000000    -3.102000000    -4.865000000
C     0.331000000    -2.067000000    -7.968000000
H    -0.447000000    -2.329000000    -8.681000000
C     1.446000000    -1.303000000    -8.334000000
H     1.416000000    -0.875000000    -9.333000000
C     2.535000000    -1.250000000    -7.491000000
H     3.348000000    -0.541000000    -7.626000000
C     2.466000000    -1.925000000    -6.301000000
O     3.540000000    -1.898000000    -5.395000000
C     3.853000000    -0.904000000    -4.451000000
C     5.027000000    -1.161000000    -3.776000000
H     5.655000000    -1.965000000    -4.152000000
C     5.388000000    -0.317000000    -2.721000000
O     6.547000000    -0.578000000    -1.940000000
C     6.847000000    -0.153000000    -0.743000000
C     6.338000000    -0.933000000     0.300000000
H     5.673000000    -1.774000000     0.119000000
C     7.634000000     0.990000000    -0.535000000
H     8.052000000     1.500000000    -1.399000000
C     7.935000000     1.348000000     0.776000000
H     8.551000000     2.208000000     1.027000000
C     7.326000000     0.666000000     1.818000000
H     7.445000000     0.976000000     2.853000000
C     6.573000000    -0.491000000     1.637000000
O     6.006000000    -1.273000000     2.647000000
C     4.900000000    -0.850000000     3.398000000
C     4.478000000    -1.590000000     4.492000000
H     5.038000000    -2.475000000     4.784000000
C     3.424000000    -1.172000000     5.309000000
O     3.050000000    -1.875000000     6.397000000
C     1.717000000    -2.068000000     6.693000000
C     0.930000000    -2.856000000     5.925000000
H     1.411000000    -3.452000000     5.153000000
C     1.069000000    -1.303000000     7.684000000
H     1.535000000    -0.482000000     8.223000000
C    -0.327000000    -1.430000000     7.900000000
H    -0.801000000    -0.733000000     8.585000000
C    -1.021000000    -2.294000000     7.132000000
H    -2.093000000    -2.443000000     7.233000000
C    -0.424000000    -3.029000000     6.117000000
O    -1.111000000    -3.876000000     5.288000000
C    -2.035000000    -3.547000000     4.349000000
C    -2.760000000    -4.546000000     3.678000000
H    -2.438000000    -5.563000000     3.886000000
C    -3.656000000    -4.171000000     2.659000000
O    -4.218000000    -5.103000000     1.907000000
C    -4.776000000    -4.878000000     0.691000000
C    -6.064000000    -4.424000000     0.565000000
H    -6.719000000    -4.183000000     1.398000000
C    -6.488000000    -4.084000000    -0.749000000
H    -7.484000000    -3.690000000    -0.934000000
C    -5.634000000    -4.371000000    -1.801000000
H    -6.063000000    -4.264000000    -2.794000000
C    -4.353000000    -4.795000000    -1.618000000
C    -3.913000000    -5.025000000    -0.323000000
H    -2.903000000    -5.367000000    -0.113000000
O     2.764000000    -7.532000000    -1.245000000
H     2.245000000    -6.778000000    -0.963000000
H     3.605000000    -7.159000000    -1.507000000
O    -1.354000000    -8.510000000     1.708000000
H    -2.238000000    -8.565000000     2.072000000
H    -1.197000000    -7.571000000     1.602000000
O    -0.983000000    -6.621000000    -2.144000000
H    -1.687000000    -5.974000000    -2.093000000
H    -0.276000000    -6.247000000    -1.618000000
O     1.425000000    -3.422000000     2.352000000
H     0.810000000    -2.719000000     2.144000000
H     2.268000000    -2.982000000     2.454000000
O     1.077000000    -6.758000000     3.782000000
H     1.814000000    -6.299000000     4.185000000
H     0.870000000    -6.241000000     3.003000000
O     4.842000000    -5.413000000    -5.724000000
H     5.588000000    -5.878000000    -5.345000000
H     4.427000000    -4.978000000    -4.978000000
O     3.380000000    -4.528000000    -3.551000000
H     3.065000000    -5.099000000    -2.849000000
H     3.597000000    -3.706000000    -3.111000000
O     0.631000000    -5.548000000    -6.521000000
H     0.584000000    -6.003000000    -5.681000000
H    -0.018000000    -4.848000000    -6.451000000
O     4.988000000    -5.767000000    -1.616000000
H     5.694000000    -5.125000000    -1.692000000
H     4.281000000    -5.294000000    -1.176000000
O     1.210000000    -9.918000000    -1.722000000
H     1.788000000    -9.158000000    -1.660000000
H     0.620000000    -9.832000000    -0.974000000
O    -2.074000000    -8.978000000    -3.270000000
H    -2.762000000    -9.228000000    -2.652000000
H    -1.697000000    -8.181000000    -2.898000000
O     7.191000000    -7.762000000    -1.441000000
H     7.076000000    -8.489000000    -2.053000000
H     6.438000000    -7.193000000    -1.601000000
O     3.233000000    -5.333000000     4.390000000
H     4.017000000    -5.473000000     4.922000000
H     3.469000000    -4.619000000     3.798000000
O    -0.286000000    -5.709000000     1.443000000
H     0.190000000    -5.535000000     0.631000000
H    -0.190000000    -4.906000000     1.955000000
O     0.952000000    -6.650000000    -4.008000000
H     0.127000000    -6.748000000    -3.532000000
H     1.619000000    -6.594000000    -3.324000000
O     4.339000000    -8.934000000     0.725000000
H     4.368000000    -9.831000000     0.393000000
H     3.652000000    -8.510000000     0.210000000
O     4.306000000    -3.829000000     2.033000000
H     5.176000000    -3.873000000     1.638000000
H     3.750000000    -4.343000000     1.447000000
O     1.962000000    -8.739000000    -5.620000000
H     1.663000000    -7.970000000    -5.135000000
H     1.342000000    -8.822000000    -6.344000000
O     6.706000000    -4.231000000     0.804000000
H     6.769000000    -5.185000000     0.849000000
H     6.857000000    -4.025000000    -0.119000000
