201
-1268.86153
C     4.887000000     0.147000000    -2.196000000
H     5.170000000     0.817000000    -1.388000000
C     3.768000000     0.449000000    -2.988000000
C     3.420000000    -0.491000000    -3.974000000
H     2.531000000    -0.309000000    -4.572000000
C     2.880000000     1.659000000    -2.729000000
O     3.741000000     2.665000000    -2.175000000
H     2.053000000     1.372000000    -2.062000000
O     2.311000000     2.154000000    -3.978000000
C     1.037000000     2.563000000    -3.950000000
C     0.033000000     1.721000000    -4.374000000
H     0.337000000     0.777000000    -4.819000000
C    -1.337000000     1.898000000    -4.052000000
O    -2.216000000     0.868000000    -4.313000000
C    -1.747000000     3.096000000    -3.350000000
C    -3.228000000     3.262000000    -2.990000000
H    -3.424000000     4.332000000    -2.890000000
C    -3.575000000     2.570000000    -1.682000000
C    -3.781000000     3.346000000    -0.499000000
H    -3.620000000     4.421000000    -0.474000000
H    -3.788000000     2.802000000    -3.807000000
C    -0.691000000     3.985000000    -3.011000000
H    -1.113000000     4.742000000    -2.355000000
C     0.698000000     3.738000000    -3.255000000
C     1.822000000     4.637000000    -2.754000000
H     1.532000000     5.676000000    -2.920000000
H     2.717000000     4.627000000    -3.379000000
C     2.217000000     4.422000000    -1.309000000
C     1.431000000     4.938000000    -0.253000000
H     0.487000000     5.438000000    -0.452000000
C     3.212000000     3.505000000    -1.088000000
C     3.518000000     3.128000000     0.197000000
H     4.383000000     2.484000000     0.331000000
C     2.733000000     3.624000000     1.277000000
O     2.993000000     2.975000000     2.503000000
C     2.079000000     2.014000000     2.921000000
C     2.817000000     0.751000000     3.429000000
C     2.422000000     0.178000000     4.670000000
H     1.539000000     0.558000000     5.176000000
C     3.877000000     0.062000000     2.726000000
H     4.260000000     0.507000000     1.811000000
O     1.238000000     2.499000000     3.974000000
H     1.478000000     1.779000000     2.030000000
C     1.660000000     4.473000000     1.058000000
C     0.785000000     4.894000000     2.186000000
H     0.371000000     5.874000000     1.940000000
H     1.413000000     5.129000000     3.048000000
C    -0.252000000     3.936000000     2.668000000
C    -1.599000000     4.209000000     2.312000000
H    -1.921000000     5.038000000     1.687000000
C    -0.020000000     2.953000000     3.589000000
C    -1.079000000     2.082000000     3.970000000
H    -0.937000000     1.189000000     4.574000000
C    -2.387000000     2.211000000     3.408000000
O    -3.287000000     1.146000000     3.749000000
C    -3.565000000     0.207000000     2.696000000
C    -3.756000000    -1.206000000     3.193000000
C    -2.867000000    -1.663000000     4.186000000
H    -2.126000000    -1.004000000     4.630000000
C    -4.577000000    -2.127000000     2.596000000
H    -5.178000000    -1.906000000     1.718000000
O    -4.673000000     0.711000000     1.865000000
H    -2.676000000     0.310000000     2.056000000
C    -2.638000000     3.288000000     2.540000000
C    -4.034000000     3.462000000     1.994000000
H    -4.246000000     4.529000000     1.906000000
H    -4.754000000     3.104000000     2.733000000
C    -4.052000000     2.686000000     0.677000000
C    -4.373000000     1.325000000     0.709000000
C    -4.364000000     0.605000000    -0.461000000
H    -4.672000000    -0.437000000    -0.442000000
C    -3.951000000     1.196000000    -1.674000000
O    -3.847000000     0.413000000    -2.787000000
C    -2.550000000    -0.012000000    -3.165000000
H    -1.787000000     0.265000000    -2.422000000
C    -2.487000000    -1.454000000    -3.479000000
C    -1.546000000    -1.996000000    -4.337000000
H    -0.792000000    -1.380000000    -4.820000000
C    -3.393000000    -2.333000000    -2.843000000
H    -3.976000000    -1.901000000    -2.034000000
C    -3.316000000    -3.732000000    -3.022000000
O    -4.055000000    -4.657000000    -2.315000000
C    -2.461000000    -4.166000000    -3.981000000
H    -2.502000000    -5.229000000    -4.203000000
C    -1.532000000    -3.344000000    -4.612000000
O    -0.693000000    -3.880000000    -5.566000000
C     0.385000000    -3.286000000    -6.139000000
C     1.535000000    -3.176000000    -5.375000000
H     1.508000000    -3.748000000    -4.451000000
C     0.321000000    -2.615000000    -7.333000000
H    -0.657000000    -2.581000000    -7.806000000
C     1.444000000    -2.011000000    -7.864000000
H     1.417000000    -1.597000000    -8.869000000
C     2.651000000    -2.066000000    -7.155000000
H     3.570000000    -1.632000000    -7.541000000
C     2.653000000    -2.647000000    -5.867000000
O     3.803000000    -2.667000000    -5.081000000
C     4.213000000    -1.670000000    -4.183000000
C     5.348000000    -1.853000000    -3.439000000
H     5.987000000    -2.720000000    -3.584000000
C     5.667000000    -0.979000000    -2.422000000
O     6.878000000    -1.232000000    -1.794000000
C     7.007000000    -0.834000000    -0.499000000
C     6.275000000    -1.542000000     0.416000000
H     5.639000000    -2.365000000     0.099000000
C     7.788000000     0.266000000    -0.174000000
H     8.390000000     0.757000000    -0.934000000
C     7.790000000     0.786000000     1.158000000
H     8.316000000     1.701000000     1.416000000
C     7.029000000     0.039000000     2.075000000
H     7.087000000     0.318000000     3.124000000
C     6.332000000    -1.055000000     1.696000000
O     5.578000000    -1.690000000     2.645000000
C     4.496000000    -1.048000000     3.251000000
C     4.062000000    -1.518000000     4.453000000
H     4.442000000    -2.485000000     4.773000000
C     3.051000000    -0.941000000     5.165000000
O     2.502000000    -1.600000000     6.248000000
C     1.216000000    -1.705000000     6.667000000
C     0.335000000    -2.383000000     5.774000000
H     0.696000000    -2.712000000     4.802000000
C     0.820000000    -1.163000000     7.842000000
H     1.551000000    -0.629000000     8.445000000
C    -0.463000000    -1.388000000     8.244000000
H    -0.818000000    -1.122000000     9.236000000
C    -1.362000000    -2.188000000     7.471000000
H    -2.363000000    -2.481000000     7.777000000
C    -0.978000000    -2.631000000     6.216000000
O    -1.839000000    -3.449000000     5.476000000
C    -2.751000000    -3.004000000     4.540000000
C    -3.530000000    -3.898000000     3.865000000
H    -3.459000000    -4.949000000     4.135000000
C    -4.527000000    -3.513000000     2.974000000
O    -5.369000000    -4.353000000     2.307000000
C    -5.686000000    -4.209000000     1.004000000
C    -6.973000000    -3.852000000     0.592000000
H    -7.790000000    -3.635000000     1.276000000
C    -7.191000000    -3.656000000    -0.735000000
H    -8.142000000    -3.305000000    -1.127000000
C    -6.236000000    -3.831000000    -1.704000000
H    -6.483000000    -3.606000000    -2.738000000
C    -5.008000000    -4.361000000    -1.316000000
C    -4.752000000    -4.538000000     0.068000000
H    -3.803000000    -4.949000000     0.403000000
O     3.653000000    -6.232000000     0.773000000
H     3.207000000    -6.793000000     0.138000000
H     3.391000000    -5.343000000     0.532000000
O     1.235000000    -9.601000000     2.014000000
H     1.449000000    -8.696000000     2.242000000
H     0.830000000    -9.957000000     2.805000000
O    -1.653000000    -8.503000000     0.968000000
H    -1.209000000    -9.076000000     1.593000000
H    -1.180000000    -7.673000000     1.027000000
O     0.151000000    -6.511000000     0.572000000
H     0.169000000    -6.009000000     1.387000000
H     0.625000000    -5.966000000    -0.056000000
O     0.662000000    -2.110000000     2.264000000
H     0.536000000    -1.767000000     1.380000000
H     1.595000000    -2.319000000     2.310000000
O     2.625000000    -7.311000000     3.336000000
H     2.058000000    -6.540000000     3.377000000
H     3.234000000    -7.123000000     2.622000000
O     5.995000000    -4.926000000    -5.956000000
H     5.468000000    -5.283000000    -5.241000000
H     5.840000000    -5.522000000    -6.689000000
O     6.220000000    -5.850000000     0.238000000
H     5.302000000    -5.939000000     0.492000000
H     6.575000000    -6.737000000     0.305000000
O     4.197000000    -6.174000000    -4.484000000
H     4.181000000    -7.065000000    -4.135000000
H     4.404000000    -5.624000000    -3.729000000
O     5.219000000    -4.940000000    -2.233000000
H     5.688000000    -5.221000000    -1.448000000
H     4.507000000    -4.393000000    -1.903000000
O     2.046000000    -8.306000000    -0.359000000
H     1.279000000    -7.814000000    -0.065000000
H     1.974000000    -9.150000000     0.087000000
O     7.888000000    -5.418000000    -2.918000000
H     6.970000000    -5.147000000    -2.908000000
H     7.918000000    -6.183000000    -2.344000000
O     0.218000000    -6.183000000    -3.046000000
H    -0.682000000    -6.198000000    -2.719000000
H     0.715000000    -5.739000000    -2.358000000
O    -0.245000000    -4.878000000     2.718000000
H    -1.037000000    -4.934000000     3.253000000
H    -0.062000000    -3.940000000     2.658000000
O     3.381000000    -8.340000000    -2.837000000
H     4.148000000    -8.756000000    -2.443000000
H     2.872000000    -8.021000000    -2.092000000
O     4.721000000    -4.914000000     3.851000000
H     4.142000000    -5.108000000     4.588000000
H     5.348000000    -5.637000000     3.843000000
O     8.827000000    -3.301000000    -1.172000000
H     9.146000000    -3.949000000    -1.799000000
H     7.874000000    -3.380000000    -1.210000000
O     3.147000000    -3.282000000     1.960000000
H     3.570000000    -3.954000000     2.493000000
H     3.633000000    -3.289000000     1.135000000
O     1.613000000    -6.626000000    -5.380000000
H     2.477000000    -6.595000000    -4.969000000
H     1.002000000    -6.430000000    -4.670000000
