201
-1256.08614
C     4.950000000     0.185000000    -2.507000000
H     5.311000000     0.988000000    -1.870000000
C     3.689000000     0.228000000    -3.082000000
C     3.233000000    -0.861000000    -3.826000000
H     2.226000000    -0.892000000    -4.233000000
C     2.708000000     1.399000000    -2.910000000
O     3.363000000     2.615000000    -2.628000000
H     1.923000000     1.085000000    -2.206000000
O     1.976000000     1.614000000    -4.108000000
C     0.658000000     2.045000000    -4.085000000
C    -0.262000000     1.043000000    -4.362000000
H     0.011000000     0.128000000    -4.882000000
C    -1.634000000     1.239000000    -4.052000000
O    -2.459000000     0.168000000    -4.244000000
C    -2.058000000     2.477000000    -3.607000000
C    -3.512000000     2.736000000    -3.332000000
H    -3.732000000     3.805000000    -3.313000000
C    -3.905000000     2.325000000    -1.935000000
C    -3.752000000     3.178000000    -0.858000000
H    -3.508000000     4.232000000    -0.964000000
H    -4.115000000     2.141000000    -4.022000000
C    -1.131000000     3.411000000    -3.282000000
H    -1.454000000     4.295000000    -2.737000000
C     0.255000000     3.292000000    -3.560000000
C     1.100000000     4.403000000    -3.152000000
H     0.647000000     5.388000000    -3.287000000
H     1.929000000     4.498000000    -3.856000000
C     1.751000000     4.230000000    -1.774000000
C     1.294000000     4.919000000    -0.689000000
H     0.423000000     5.554000000    -0.833000000
C     2.815000000     3.341000000    -1.553000000
C     3.343000000     3.067000000    -0.264000000
H     4.181000000     2.388000000    -0.129000000
C     2.729000000     3.663000000     0.835000000
O     3.088000000     3.348000000     2.137000000
C     2.302000000     2.288000000     2.788000000
C     3.182000000     1.291000000     3.503000000
C     2.633000000     0.568000000     4.602000000
H     1.669000000     0.797000000     5.047000000
C     4.365000000     0.885000000     2.882000000
H     4.692000000     1.424000000     1.997000000
O     1.372000000     2.848000000     3.739000000
H     1.709000000     1.740000000     2.042000000
C     1.717000000     4.654000000     0.650000000
C     0.973000000     5.170000000     1.910000000
H     0.441000000     6.087000000     1.648000000
H     1.607000000     5.431000000     2.759000000
C    -0.099000000     4.239000000     2.336000000
C    -1.336000000     4.281000000     1.733000000
H    -1.524000000     5.006000000     0.946000000
C     0.109000000     3.168000000     3.299000000
C    -0.934000000     2.398000000     3.743000000
H    -0.717000000     1.733000000     4.574000000
C    -2.213000000     2.530000000     3.248000000
O    -3.024000000     1.520000000     3.598000000
C    -3.370000000     0.516000000     2.636000000
C    -3.499000000    -0.794000000     3.332000000
C    -2.407000000    -1.310000000     4.083000000
H    -1.560000000    -0.663000000     4.302000000
C    -4.470000000    -1.688000000     2.941000000
H    -5.340000000    -1.338000000     2.391000000
O    -4.540000000     0.890000000     1.904000000
H    -2.544000000     0.394000000     1.919000000
C    -2.442000000     3.513000000     2.249000000
C    -3.772000000     3.727000000     1.532000000
H    -3.805000000     4.692000000     1.022000000
H    -4.577000000     3.858000000     2.258000000
C    -4.054000000     2.738000000     0.404000000
C    -4.380000000     1.414000000     0.630000000
C    -4.481000000     0.548000000    -0.467000000
H    -4.720000000    -0.503000000    -0.324000000
C    -4.252000000     0.985000000    -1.767000000
O    -4.202000000     0.059000000    -2.716000000
C    -2.898000000    -0.430000000    -2.990000000
H    -2.298000000    -0.080000000    -2.137000000
C    -2.913000000    -1.939000000    -3.186000000
C    -2.051000000    -2.527000000    -4.129000000
H    -1.446000000    -1.879000000    -4.758000000
C    -3.564000000    -2.796000000    -2.264000000
H    -4.101000000    -2.271000000    -1.478000000
C    -3.317000000    -4.149000000    -2.278000000
O    -3.796000000    -4.948000000    -1.297000000
C    -2.581000000    -4.691000000    -3.343000000
H    -2.481000000    -5.769000000    -3.442000000
C    -1.917000000    -3.895000000    -4.264000000
O    -1.036000000    -4.491000000    -5.181000000
C     0.120000000    -3.934000000    -5.670000000
C     1.281000000    -3.801000000    -4.841000000
H     1.308000000    -4.213000000    -3.836000000
C     0.121000000    -3.427000000    -6.992000000
H    -0.826000000    -3.385000000    -7.524000000
C     1.283000000    -2.814000000    -7.431000000
H     1.210000000    -2.255000000    -8.360000000
C     2.427000000    -2.613000000    -6.635000000
H     3.289000000    -2.050000000    -6.984000000
C     2.439000000    -3.212000000    -5.334000000
O     3.609000000    -3.114000000    -4.602000000
C     3.951000000    -2.055000000    -3.857000000
C     5.248000000    -2.073000000    -3.378000000
H     5.860000000    -2.965000000    -3.489000000
C     5.756000000    -1.015000000    -2.628000000
O     6.931000000    -1.195000000    -1.859000000
C     7.181000000    -0.414000000    -0.627000000
C     6.722000000    -0.875000000     0.589000000
H     6.326000000    -1.883000000     0.686000000
C     7.613000000     0.919000000    -0.790000000
H     7.833000000     1.299000000    -1.784000000
C     7.735000000     1.787000000     0.330000000
H     8.070000000     2.820000000     0.282000000
C     7.398000000     1.280000000     1.541000000
H     7.555000000     1.952000000     2.381000000
C     6.759000000     0.027000000     1.655000000
O     6.266000000    -0.491000000     2.809000000
C     5.053000000    -0.199000000     3.351000000
C     4.528000000    -0.908000000     4.432000000
H     5.082000000    -1.728000000     4.880000000
C     3.330000000    -0.577000000     5.015000000
O     2.944000000    -1.410000000     6.136000000
C     1.637000000    -1.626000000     6.540000000
C     0.743000000    -2.372000000     5.785000000
H     1.164000000    -2.956000000     4.972000000
C     1.086000000    -0.869000000     7.642000000
H     1.736000000    -0.158000000     8.145000000
C    -0.185000000    -1.049000000     8.101000000
H    -0.612000000    -0.565000000     8.976000000
C    -1.048000000    -1.844000000     7.326000000
H    -2.083000000    -2.035000000     7.600000000
C    -0.584000000    -2.471000000     6.172000000
O    -1.398000000    -3.172000000     5.318000000
C    -2.431000000    -2.632000000     4.567000000
C    -3.489000000    -3.422000000     4.202000000
H    -3.401000000    -4.491000000     4.381000000
C    -4.472000000    -2.935000000     3.402000000
O    -5.473000000    -3.807000000     2.992000000
C    -5.740000000    -4.049000000     1.718000000
C    -7.021000000    -4.139000000     1.241000000
H    -7.845000000    -4.107000000     1.949000000
C    -7.203000000    -4.386000000    -0.120000000
H    -8.228000000    -4.519000000    -0.455000000
C    -6.176000000    -4.608000000    -0.988000000
H    -6.465000000    -4.739000000    -2.028000000
C    -4.858000000    -4.577000000    -0.502000000
C    -4.654000000    -4.411000000     0.865000000
H    -3.634000000    -4.460000000     1.236000000
O     4.101000000    -7.252000000    -0.373000000
H     3.677000000    -6.659000000    -0.992000000
H     4.932000000    -6.825000000    -0.164000000
O     0.319000000    -8.032000000     1.690000000
H    -0.634000000    -8.096000000     1.748000000
H     0.483000000    -7.125000000     1.433000000
O     0.810000000    -6.330000000    -2.401000000
H     0.574000000    -7.116000000    -1.909000000
H     1.500000000    -5.919000000    -1.880000000
O     2.108000000    -2.985000000     2.499000000
H     2.575000000    -2.356000000     1.949000000
H     2.741000000    -3.231000000     3.173000000
O     5.582000000    -4.340000000    -6.210000000
H     6.438000000    -4.572000000    -5.849000000
H     5.009000000    -4.275000000    -5.445000000
O     5.540000000    -5.356000000    -3.160000000
H     5.808000000    -6.051000000    -2.558000000
H     5.150000000    -4.688000000    -2.596000000
O     8.126000000    -7.429000000     1.316000000
H     7.922000000    -7.640000000     2.227000000
H     7.291000000    -7.518000000     0.856000000
O     2.904000000    -7.003000000    -6.841000000
H     2.923000000    -6.702000000    -5.932000000
H     1.991000000    -7.242000000    -6.995000000
O     6.457000000    -5.003000000     0.122000000
H     7.218000000    -4.613000000    -0.308000000
H     5.708000000    -4.530000000    -0.240000000
O     8.736000000    -3.616000000    -1.290000000
H     8.444000000    -3.498000000    -2.194000000
H     9.028000000    -4.526000000    -1.250000000
O    -0.564000000    -7.962000000    -3.999000000
H    -1.152000000    -8.309000000    -3.329000000
H    -0.240000000    -7.140000000    -3.631000000
O     3.007000000    -4.537000000     4.917000000
H     3.639000000    -4.841000000     4.266000000
H     3.529000000    -4.030000000     5.539000000
O     1.149000000    -5.325000000     1.075000000
H     1.721000000    -5.160000000     0.325000000
H     1.298000000    -4.581000000     1.658000000
O     2.986000000    -6.347000000    -4.099000000
H     2.306000000    -6.073000000    -3.484000000
H     3.758000000    -5.841000000    -3.844000000
O     4.239000000    -7.991000000     2.364000000
H     3.530000000    -8.422000000     2.842000000
H     3.890000000    -7.862000000     1.482000000
O     0.760000000    -8.696000000    -0.902000000
H     0.862000000    -8.217000000    -0.079000000
H     0.332000000    -9.514000000    -0.651000000
O     4.888000000    -4.484000000     2.866000000
H     5.361000000    -4.027000000     2.170000000
H     4.972000000    -5.412000000     2.643000000
O     1.925000000    -9.008000000    -4.164000000
H     2.478000000    -8.262000000    -3.929000000
H     1.041000000    -8.645000000    -4.209000000
O     7.839000000    -4.833000000     3.017000000
H     7.580000000    -5.047000000     2.121000000
H     8.786000000    -4.701000000     2.968000000
