201
-1231.02903
C     5.494000000    -0.470000000    -1.220000000
H     5.750000000     0.345000000    -0.548000000
C     4.551000000    -0.398000000    -2.237000000
C     4.512000000    -1.504000000    -3.120000000
H     3.791000000    -1.518000000    -3.933000000
C     3.653000000     0.802000000    -2.361000000
O     4.285000000     1.978000000    -1.840000000
H     2.805000000     0.630000000    -1.682000000
O     3.377000000     0.988000000    -3.733000000
C     2.075000000     1.414000000    -3.907000000
C     1.140000000     0.401000000    -4.257000000
H     1.490000000    -0.617000000    -4.406000000
C    -0.186000000     0.704000000    -4.481000000
O    -1.017000000    -0.341000000    -4.597000000
C    -0.627000000     2.035000000    -4.351000000
C    -2.059000000     2.434000000    -4.527000000
H    -2.280000000     3.362000000    -5.060000000
C    -2.782000000     2.201000000    -3.195000000
C    -2.740000000     3.292000000    -2.204000000
H    -2.214000000     4.223000000    -2.399000000
H    -2.466000000     1.692000000    -5.218000000
C     0.272000000     3.006000000    -4.028000000
H    -0.134000000     4.011000000    -3.956000000
C     1.639000000     2.691000000    -3.842000000
C     2.607000000     3.767000000    -3.363000000
H     2.189000000     4.722000000    -3.688000000
H     3.641000000     3.678000000    -3.702000000
C     2.657000000     3.739000000    -1.805000000
C     1.774000000     4.417000000    -1.008000000
H     1.016000000     5.022000000    -1.499000000
C     3.515000000     2.846000000    -1.142000000
C     3.556000000     2.785000000     0.287000000
H     4.314000000     2.157000000     0.748000000
C     2.714000000     3.520000000     1.140000000
O     2.630000000     3.255000000     2.438000000
C     1.487000000     2.519000000     2.957000000
C     1.781000000     1.357000000     3.813000000
C     0.884000000     0.839000000     4.738000000
H    -0.069000000     1.297000000     4.989000000
C     3.005000000     0.651000000     3.614000000
H     3.695000000     0.932000000     2.822000000
O     0.635000000     3.436000000     3.563000000
H     0.925000000     2.121000000     2.099000000
C     1.796000000     4.325000000     0.450000000
C     0.945000000     5.387000000     1.291000000
H     0.814000000     6.326000000     0.750000000
H     1.624000000     5.734000000     2.073000000
C    -0.369000000     4.817000000     1.740000000
C    -1.453000000     4.924000000     0.869000000
H    -1.263000000     5.592000000     0.032000000
C    -0.456000000     3.911000000     2.843000000
C    -1.620000000     3.302000000     3.075000000
H    -1.643000000     2.598000000     3.902000000
C    -2.669000000     3.379000000     2.132000000
O    -3.782000000     2.602000000     2.336000000
C    -3.815000000     1.408000000     1.510000000
C    -4.173000000     0.161000000     2.258000000
C    -4.078000000     0.176000000     3.645000000
H    -3.779000000     1.092000000     4.149000000
C    -4.641000000    -1.009000000     1.561000000
H    -4.851000000    -1.047000000     0.495000000
O    -4.767000000     1.643000000     0.381000000
H    -2.801000000     1.269000000     1.105000000
C    -2.595000000     4.134000000     1.001000000
C    -3.629000000     4.170000000    -0.055000000
H    -3.556000000     5.103000000    -0.617000000
H    -4.620000000     4.101000000     0.399000000
C    -3.521000000     3.102000000    -1.070000000
C    -4.083000000     1.840000000    -0.807000000
C    -3.976000000     0.768000000    -1.616000000
H    -4.442000000    -0.177000000    -1.346000000
C    -3.362000000     0.934000000    -2.818000000
O    -3.149000000    -0.155000000    -3.610000000
C    -1.826000000    -0.801000000    -3.552000000
H    -1.358000000    -0.486000000    -2.608000000
C    -1.867000000    -2.388000000    -3.557000000
C    -0.685000000    -3.150000000    -3.686000000
H     0.286000000    -2.661000000    -3.669000000
C    -3.086000000    -3.013000000    -3.281000000
H    -4.010000000    -2.441000000    -3.291000000
C    -3.081000000    -4.433000000    -3.136000000
O    -4.248000000    -5.065000000    -2.776000000
C    -1.918000000    -5.140000000    -3.304000000
H    -1.979000000    -6.226000000    -3.304000000
C    -0.732000000    -4.531000000    -3.585000000
O     0.402000000    -5.283000000    -3.810000000
C     1.506000000    -4.746000000    -4.432000000
C     2.659000000    -4.455000000    -3.645000000
H     2.646000000    -4.519000000    -2.560000000
C     1.450000000    -4.500000000    -5.803000000
H     0.594000000    -4.727000000    -6.434000000
C     2.643000000    -4.109000000    -6.432000000
H     2.733000000    -4.056000000    -7.514000000
C     3.811000000    -3.924000000    -5.730000000
H     4.698000000    -3.569000000    -6.249000000
C     3.844000000    -4.047000000    -4.310000000
O     4.985000000    -3.658000000    -3.670000000
C     5.156000000    -2.625000000    -2.817000000
C     5.911000000    -2.769000000    -1.681000000
H     6.277000000    -3.702000000    -1.260000000
C     6.156000000    -1.660000000    -0.901000000
O     6.944000000    -1.868000000     0.240000000
C     6.699000000    -1.200000000     1.434000000
C     5.645000000    -1.527000000     2.236000000
H     4.946000000    -2.297000000     1.920000000
C     7.491000000    -0.111000000     1.717000000
H     8.387000000     0.075000000     1.131000000
C     7.242000000     0.664000000     2.827000000
H     7.862000000     1.544000000     2.978000000
C     6.250000000     0.331000000     3.706000000
H     6.083000000     0.894000000     4.620000000
C     5.462000000    -0.776000000     3.431000000
O     4.436000000    -1.124000000     4.272000000
C     3.329000000    -0.377000000     4.446000000
C     2.489000000    -0.779000000     5.423000000
H     2.709000000    -1.609000000     6.090000000
C     1.238000000    -0.167000000     5.575000000
O     0.442000000    -0.728000000     6.538000000
C    -0.892000000    -0.530000000     6.828000000
C    -1.917000000    -0.839000000     5.991000000
H    -1.736000000    -1.189000000     4.978000000
C    -1.165000000    -0.084000000     8.140000000
H    -0.317000000     0.190000000     8.762000000
C    -2.472000000     0.058000000     8.625000000
H    -2.730000000     0.422000000     9.616000000
C    -3.564000000    -0.180000000     7.722000000
H    -4.621000000    -0.072000000     7.950000000
C    -3.285000000    -0.526000000     6.398000000
O    -4.372000000    -1.016000000     5.665000000
C    -4.364000000    -1.003000000     4.297000000
C    -4.676000000    -2.185000000     3.586000000
H    -5.000000000    -3.069000000     4.129000000
C    -4.741000000    -2.206000000     2.206000000
O    -5.113000000    -3.343000000     1.615000000
C    -5.431000000    -3.527000000     0.334000000
C    -6.724000000    -3.167000000    -0.021000000
H    -7.283000000    -2.604000000     0.721000000
C    -7.194000000    -3.507000000    -1.281000000
H    -8.160000000    -3.240000000    -1.702000000
C    -6.336000000    -4.091000000    -2.199000000
H    -6.682000000    -4.386000000    -3.187000000
C    -5.030000000    -4.437000000    -1.867000000
C    -4.587000000    -4.145000000    -0.556000000
H    -3.566000000    -4.392000000    -0.274000000
O     2.141000000    -7.448000000    -1.660000000
H     2.342000000    -6.846000000    -0.943000000
H     1.262000000    -7.197000000    -1.944000000
O    -4.087000000    -7.266000000     0.934000000
H    -3.365000000    -7.846000000     0.693000000
H    -3.676000000    -6.574000000     1.452000000
O     3.665000000    -4.722000000     3.748000000
H     2.752000000    -4.699000000     3.461000000
H     4.163000000    -4.435000000     2.983000000
O     3.278000000    -8.164000000     4.557000000
H     2.965000000    -8.909000000     4.044000000
H     3.804000000    -7.654000000     3.941000000
O    -1.511000000    -8.291000000     1.286000000
H    -1.249000000    -7.673000000     1.969000000
H    -1.638000000    -9.119000000     1.748000000
O    -3.111000000    -5.354000000     2.682000000
H    -3.101000000    -5.444000000     3.634000000
H    -2.247000000    -5.001000000     2.466000000
O     0.274000000    -5.736000000     6.640000000
H    -0.047000000    -5.998000000     7.503000000
H     0.722000000    -6.513000000     6.305000000
O     0.395000000    -7.038000000     2.983000000
H     1.337000000    -6.912000000     2.876000000
H     0.023000000    -6.162000000     2.879000000
O     3.893000000    -9.068000000     0.831000000
H     3.360000000    -9.243000000     1.606000000
H     3.653000000    -8.179000000     0.570000000
O     3.006000000    -6.136000000     0.632000000
H     2.434000000    -5.467000000     1.008000000
H     3.867000000    -5.954000000     1.008000000
O    -2.308000000    -9.127000000     4.404000000
H    -2.945000000    -8.536000000     4.002000000
H    -1.572000000    -8.562000000     4.639000000
O    -0.565000000    -8.488000000    -1.357000000
H    -0.838000000    -8.257000000    -0.469000000
H     0.290000000    -8.903000000    -1.244000000
O     5.520000000    -5.794000000     5.482000000
H     4.874000000    -5.579000000     4.809000000
H     5.136000000    -6.532000000     5.956000000
O    -3.592000000    -4.133000000     6.187000000
H    -2.804000000    -4.294000000     5.668000000
H    -3.628000000    -3.181000000     6.280000000
O     5.502000000    -5.638000000     1.452000000
H     6.115000000    -5.103000000     1.956000000
H     5.932000000    -5.763000000     0.606000000
O    -1.291000000    -3.773000000     4.976000000
H    -1.162000000    -3.971000000     4.049000000
H    -0.523000000    -4.145000000     5.410000000
O    -0.083000000    -2.773000000     8.801000000
H     0.747000000    -3.081000000     9.163000000
H     0.147000000    -2.412000000     7.945000000
O     2.999000000    -4.214000000     6.726000000
H     2.201000000    -4.660000000     6.442000000
H     3.612000000    -4.336000000     6.001000000
O     5.566000000    -8.076000000     2.670000000
H     5.106000000    -8.613000000     2.025000000
H     5.606000000    -7.206000000     2.272000000
