201
-1257.72196
C     4.932000000    -1.383000000    -0.818000000
H     5.293000000    -0.495000000    -0.306000000
C     4.320000000    -1.183000000    -2.069000000
C     3.935000000    -2.282000000    -2.815000000
H     3.491000000    -2.223000000    -3.806000000
C     3.802000000     0.152000000    -2.541000000
O     4.630000000     1.244000000    -2.225000000
H     2.895000000     0.393000000    -1.967000000
O     3.433000000     0.235000000    -3.989000000
C     2.188000000     0.654000000    -4.243000000
C     1.133000000    -0.300000000    -4.358000000
H     1.432000000    -1.341000000    -4.456000000
C    -0.204000000     0.106000000    -4.466000000
O    -1.214000000    -0.850000000    -4.588000000
C    -0.520000000     1.477000000    -4.531000000
C    -1.944000000     1.972000000    -4.753000000
H    -1.765000000     2.966000000    -5.166000000
C    -2.751000000     2.058000000    -3.451000000
C    -2.784000000     3.207000000    -2.663000000
H    -2.261000000     4.105000000    -2.983000000
H    -2.431000000     1.307000000    -5.470000000
C     0.531000000     2.364000000    -4.333000000
H     0.261000000     3.417000000    -4.303000000
C     1.856000000     2.019000000    -4.218000000
C     2.906000000     3.075000000    -3.895000000
H     2.469000000     3.968000000    -4.347000000
H     3.901000000     2.951000000    -4.329000000
C     3.082000000     3.156000000    -2.395000000
C     2.392000000     4.143000000    -1.712000000
H     1.781000000     4.863000000    -2.252000000
C     3.973000000     2.334000000    -1.696000000
C     4.058000000     2.531000000    -0.301000000
H     4.690000000     1.803000000     0.200000000
C     3.304000000     3.454000000     0.408000000
O     3.277000000     3.327000000     1.810000000
C     2.128000000     2.662000000     2.398000000
C     2.573000000     1.916000000     3.640000000
C     1.732000000     1.729000000     4.745000000
H     0.769000000     2.226000000     4.831000000
C     3.795000000     1.300000000     3.700000000
H     4.499000000     1.440000000     2.884000000
O     1.206000000     3.718000000     2.838000000
H     1.803000000     1.892000000     1.682000000
C     2.505000000     4.258000000    -0.320000000
C     1.616000000     5.250000000     0.431000000
H     1.388000000     6.099000000    -0.217000000
H     2.071000000     5.678000000     1.327000000
C     0.252000000     4.641000000     0.831000000
C    -0.846000000     4.811000000     0.061000000
H    -0.782000000     5.407000000    -0.846000000
C     0.126000000     3.983000000     2.039000000
C    -1.118000000     3.543000000     2.501000000
H    -1.097000000     3.193000000     3.530000000
C    -2.252000000     3.721000000     1.713000000
O    -3.332000000     2.958000000     2.172000000
C    -3.642000000     1.738000000     1.395000000
C    -4.141000000     0.668000000     2.458000000
C    -3.556000000     0.508000000     3.745000000
H    -2.822000000     1.224000000     4.107000000
C    -5.063000000    -0.282000000     1.992000000
H    -5.559000000    -0.144000000     1.034000000
O    -4.528000000     1.986000000     0.306000000
H    -2.663000000     1.464000000     0.974000000
C    -2.128000000     4.351000000     0.471000000
C    -3.306000000     4.506000000    -0.474000000
H    -3.303000000     5.420000000    -1.072000000
H    -4.240000000     4.640000000     0.075000000
C    -3.374000000     3.264000000    -1.418000000
C    -3.969000000     2.076000000    -0.976000000
C    -4.055000000     0.945000000    -1.757000000
H    -4.491000000     0.025000000    -1.377000000
C    -3.451000000     0.941000000    -3.001000000
O    -3.340000000    -0.291000000    -3.664000000
C    -2.073000000    -1.009000000    -3.516000000
H    -1.513000000    -0.618000000    -2.653000000
C    -2.379000000    -2.494000000    -3.137000000
C    -1.424000000    -3.476000000    -3.419000000
H    -0.521000000    -3.102000000    -3.896000000
C    -3.590000000    -2.882000000    -2.534000000
H    -4.280000000    -2.148000000    -2.125000000
C    -3.824000000    -4.226000000    -2.271000000
O    -5.004000000    -4.581000000    -1.664000000
C    -2.864000000    -5.173000000    -2.634000000
H    -3.043000000    -6.220000000    -2.401000000
C    -1.655000000    -4.856000000    -3.154000000
O    -0.734000000    -5.846000000    -3.476000000
C     0.455000000    -5.587000000    -4.033000000
C     1.561000000    -5.444000000    -3.276000000
H     1.539000000    -5.641000000    -2.207000000
C     0.432000000    -5.351000000    -5.387000000
H    -0.464000000    -5.461000000    -5.992000000
C     1.606000000    -4.869000000    -5.992000000
H     1.703000000    -4.867000000    -7.074000000
C     2.707000000    -4.603000000    -5.193000000
H     3.628000000    -4.208000000    -5.614000000
C     2.720000000    -4.932000000    -3.822000000
O     3.825000000    -4.740000000    -3.029000000
C     4.095000000    -3.615000000    -2.286000000
C     4.735000000    -3.831000000    -1.070000000
H     4.918000000    -4.859000000    -0.767000000
C     5.193000000    -2.675000000    -0.375000000
O     5.851000000    -2.901000000     0.779000000
C     6.381000000    -1.871000000     1.566000000
C     5.658000000    -1.465000000     2.702000000
H     4.733000000    -1.983000000     2.945000000
C     7.589000000    -1.289000000     1.214000000
H     8.209000000    -1.646000000     0.396000000
C     8.144000000    -0.419000000     2.159000000
H     9.149000000    -0.027000000     2.020000000
C     7.412000000    -0.010000000     3.305000000
H     7.905000000     0.606000000     4.053000000
C     6.108000000    -0.425000000     3.490000000
O     5.376000000    -0.032000000     4.640000000
C     4.199000000     0.553000000     4.785000000
C     3.312000000     0.362000000     5.898000000
H     3.579000000    -0.249000000     6.757000000
C     2.043000000     0.924000000     5.930000000
O     1.216000000     0.705000000     7.011000000
C    -0.151000000     0.737000000     6.948000000
C    -1.006000000    -0.219000000     6.358000000
H    -0.644000000    -1.125000000     5.878000000
C    -0.781000000     1.639000000     7.845000000
H    -0.088000000     2.273000000     8.393000000
C    -2.137000000     1.686000000     7.996000000
H    -2.675000000     2.334000000     8.684000000
C    -2.941000000     0.868000000     7.234000000
H    -4.017000000     0.963000000     7.108000000
C    -2.355000000    -0.114000000     6.425000000
O    -3.125000000    -0.996000000     5.650000000
C    -3.777000000    -0.668000000     4.473000000
C    -4.730000000    -1.589000000     4.013000000
H    -5.032000000    -2.405000000     4.664000000
C    -5.336000000    -1.402000000     2.749000000
O    -6.274000000    -2.318000000     2.366000000
C    -6.527000000    -2.609000000     1.034000000
C    -7.822000000    -2.372000000     0.547000000
H    -8.494000000    -1.993000000     1.313000000
C    -8.184000000    -2.724000000    -0.760000000
H    -9.177000000    -2.532000000    -1.159000000
C    -7.233000000    -3.499000000    -1.487000000
H    -7.533000000    -3.799000000    -2.488000000
C    -5.936000000    -3.711000000    -1.016000000
C    -5.598000000    -3.250000000     0.253000000
H    -4.564000000    -3.405000000     0.549000000
O     3.972000000    -3.975000000     5.534000000
H     3.370000000    -3.575000000     4.907000000
H     4.785000000    -4.095000000     5.042000000
O    -0.140000000    -8.471000000     2.040000000
H    -0.226000000    -7.519000000     2.092000000
H    -0.865000000    -8.746000000     1.480000000
O     3.857000000    -6.162000000     7.251000000
H     4.458000000    -6.697000000     6.731000000
H     3.602000000    -5.450000000     6.665000000
O     4.321000000    -7.417000000     2.924000000
H     3.678000000    -7.465000000     2.217000000
H     4.039000000    -6.670000000     3.453000000
O    -3.911000000    -6.147000000     4.506000000
H    -3.311000000    -5.430000000     4.714000000
H    -3.414000000    -6.711000000     3.914000000
O    -0.358000000    -5.804000000     1.899000000
H    -0.888000000    -5.361000000     2.561000000
H     0.236000000    -5.127000000     1.575000000
O     0.847000000    -3.807000000    -0.031000000
H     0.983000000    -2.867000000    -0.149000000
H     1.711000000    -4.147000000     0.201000000
O    -0.241000000    -6.627000000     5.794000000
H    -0.326000000    -5.740000000     6.142000000
H    -0.393000000    -7.196000000     6.549000000
O     3.181000000    -4.499000000     1.425000000
H     2.833000000    -4.111000000     2.227000000
H     4.126000000    -4.354000000     1.479000000
O    -3.773000000    -5.972000000     1.152000000
H    -4.070000000    -5.547000000     1.957000000
H    -3.108000000    -5.381000000     0.801000000
O     2.684000000    -7.213000000     0.515000000
H     2.835000000    -6.283000000     0.683000000
H     3.099000000    -7.375000000    -0.331000000
O     2.289000000    -5.970000000     4.426000000
H     2.300000000    -5.023000000     4.288000000
H     1.385000000    -6.228000000     4.242000000
O     0.138000000    -1.916000000     9.322000000
H     0.864000000    -2.120000000     8.732000000
H    -0.634000000    -1.900000000     8.756000000
O    -2.502000000    -4.042000000     7.839000000
H    -1.739000000    -4.044000000     7.261000000
H    -2.792000000    -4.954000000     7.854000000
O     6.203000000    -4.780000000     4.110000000
H     6.874000000    -5.283000000     4.571000000
H     6.285000000    -5.053000000     3.196000000
O    -2.380000000    -3.860000000     4.834000000
H    -2.765000000    -2.988000000     4.926000000
H    -1.628000000    -3.729000000     4.256000000
O     2.487000000    -2.714000000     8.107000000
H     2.612000000    -3.424000000     8.738000000
H     3.212000000    -2.811000000     7.491000000
O    -2.014000000    -4.091000000     0.564000000
H    -2.293000000    -3.409000000    -0.048000000
H    -1.085000000    -4.218000000     0.374000000
O     0.004000000    -4.101000000     6.585000000
H     0.879000000    -3.859000000     6.890000000
H    -0.024000000    -3.802000000     5.676000000
