201
-1223.02806
C     4.310000000    -0.988000000    -0.723000000
H     3.974000000    -0.319000000     0.065000000
C     4.078000000    -0.554000000    -2.067000000
C     4.097000000    -1.506000000    -3.048000000
H     3.772000000    -1.332000000    -4.070000000
C     3.429000000     0.817000000    -2.266000000
O     4.305000000     1.853000000    -1.805000000
H     2.478000000     0.874000000    -1.716000000
O     3.138000000     0.932000000    -3.668000000
C     1.902000000     1.393000000    -3.919000000
C     0.936000000     0.455000000    -4.310000000
H     1.282000000    -0.558000000    -4.497000000
C    -0.370000000     0.746000000    -4.507000000
O    -1.258000000    -0.293000000    -4.861000000
C    -0.838000000     2.077000000    -4.245000000
C    -2.321000000     2.364000000    -4.474000000
H    -2.367000000     3.407000000    -4.794000000
C    -3.023000000     2.149000000    -3.147000000
C    -2.968000000     3.157000000    -2.213000000
H    -2.462000000     4.101000000    -2.398000000
H    -2.734000000     1.704000000    -5.241000000
C     0.046000000     3.056000000    -3.774000000
H    -0.212000000     4.107000000    -3.664000000
C     1.469000000     2.724000000    -3.684000000
C     2.491000000     3.767000000    -3.268000000
H     2.135000000     4.752000000    -3.575000000
H     3.398000000     3.735000000    -3.875000000
C     2.855000000     3.801000000    -1.749000000
C     2.085000000     4.672000000    -0.984000000
H     1.280000000     5.236000000    -1.447000000
C     3.734000000     2.937000000    -1.113000000
C     3.833000000     2.867000000     0.331000000
H     4.486000000     2.101000000     0.742000000
C     2.990000000     3.675000000     1.071000000
O     3.018000000     3.572000000     2.453000000
C     1.872000000     2.849000000     3.066000000
C     2.315000000     1.957000000     4.221000000
C     1.469000000     1.742000000     5.312000000
H     0.482000000     2.192000000     5.384000000
C     3.486000000     1.161000000     4.078000000
H     4.083000000     1.271000000     3.176000000
O     0.888000000     3.677000000     3.573000000
H     1.524000000     2.135000000     2.305000000
C     2.155000000     4.545000000     0.421000000
C     1.179000000     5.333000000     1.268000000
H     0.901000000     6.140000000     0.586000000
H     1.786000000     5.859000000     2.007000000
C    -0.092000000     4.615000000     1.584000000
C    -1.124000000     4.576000000     0.682000000
H    -1.054000000     5.106000000    -0.264000000
C    -0.223000000     3.882000000     2.747000000
C    -1.377000000     3.109000000     3.023000000
H    -1.483000000     2.463000000     3.890000000
C    -2.480000000     3.248000000     2.174000000
O    -3.503000000     2.355000000     2.311000000
C    -3.617000000     1.249000000     1.367000000
C    -3.854000000    -0.054000000     2.137000000
C    -3.333000000    -0.100000000     3.434000000
H    -2.872000000     0.745000000     3.938000000
C    -4.571000000    -1.059000000     1.644000000
H    -4.941000000    -1.083000000     0.622000000
O    -4.711000000     1.515000000     0.526000000
H    -2.705000000     1.006000000     0.802000000
C    -2.338000000     3.915000000     0.947000000
C    -3.526000000     4.095000000     0.064000000
H    -3.641000000     5.072000000    -0.411000000
H    -4.399000000     4.042000000     0.718000000
C    -3.622000000     3.009000000    -0.998000000
C    -4.302000000     1.818000000    -0.690000000
C    -4.267000000     0.825000000    -1.627000000
H    -4.806000000    -0.049000000    -1.268000000
C    -3.544000000     0.882000000    -2.800000000
O    -3.363000000    -0.237000000    -3.609000000
C    -2.091000000    -0.807000000    -3.775000000
H    -1.548000000    -0.644000000    -2.833000000
C    -2.137000000    -2.362000000    -3.817000000
C    -1.014000000    -3.058000000    -4.304000000
H    -0.157000000    -2.572000000    -4.764000000
C    -3.103000000    -3.088000000    -3.114000000
H    -3.979000000    -2.596000000    -2.699000000
C    -2.997000000    -4.438000000    -2.911000000
O    -4.029000000    -5.150000000    -2.306000000
C    -1.921000000    -5.145000000    -3.373000000
H    -1.896000000    -6.214000000    -3.178000000
C    -0.936000000    -4.440000000    -4.121000000
O     0.159000000    -5.238000000    -4.466000000
C     1.294000000    -4.744000000    -5.022000000
C     2.302000000    -4.224000000    -4.236000000
H     2.227000000    -4.214000000    -3.152000000
C     1.558000000    -5.142000000    -6.319000000
H     0.763000000    -5.589000000    -6.910000000
C     2.767000000    -4.787000000    -6.892000000
H     2.876000000    -5.012000000    -7.950000000
C     3.794000000    -4.377000000    -6.151000000
H     4.704000000    -4.027000000    -6.631000000
C     3.557000000    -4.027000000    -4.791000000
O     4.555000000    -3.747000000    -3.895000000
C     4.497000000    -2.819000000    -2.810000000
C     4.786000000    -3.157000000    -1.533000000
H     5.341000000    -4.080000000    -1.388000000
C     4.656000000    -2.309000000    -0.466000000
O     4.773000000    -2.736000000     0.784000000
C     5.416000000    -1.980000000     1.727000000
C     4.858000000    -1.711000000     2.982000000
H     3.876000000    -2.122000000     3.201000000
C     6.664000000    -1.511000000     1.353000000
H     7.099000000    -1.699000000     0.375000000
C     7.390000000    -0.680000000     2.226000000
H     8.321000000    -0.195000000     1.943000000
C     6.793000000    -0.350000000     3.451000000
H     7.363000000     0.243000000     4.161000000
C     5.585000000    -0.955000000     3.870000000
O     4.988000000    -0.540000000     5.049000000
C     3.835000000     0.158000000     5.069000000
C     2.952000000     0.008000000     6.116000000
H     3.318000000    -0.734000000     6.821000000
C     1.777000000     0.769000000     6.285000000
O     0.942000000     0.583000000     7.418000000
C    -0.458000000     0.631000000     7.253000000
C    -0.953000000    -0.209000000     6.291000000
H    -0.364000000    -0.870000000     5.659000000
C    -1.297000000     1.522000000     7.929000000
H    -0.956000000     2.262000000     8.649000000
C    -2.661000000     1.447000000     7.784000000
H    -3.335000000     2.108000000     8.322000000
C    -3.173000000     0.525000000     6.896000000
H    -4.238000000     0.333000000     6.796000000
C    -2.318000000    -0.333000000     6.180000000
O    -2.823000000    -1.301000000     5.396000000
C    -3.427000000    -1.241000000     4.170000000
C    -4.168000000    -2.358000000     3.656000000
H    -4.309000000    -3.267000000     4.236000000
C    -4.741000000    -2.221000000     2.372000000
O    -5.357000000    -3.348000000     1.908000000
C    -5.648000000    -3.695000000     0.610000000
C    -6.792000000    -3.093000000     0.076000000
H    -7.391000000    -2.452000000     0.717000000
C    -7.085000000    -3.327000000    -1.293000000
H    -8.024000000    -2.957000000    -1.697000000
C    -6.100000000    -4.008000000    -2.104000000
H    -6.249000000    -4.144000000    -3.172000000
C    -4.965000000    -4.596000000    -1.584000000
C    -4.715000000    -4.385000000    -0.168000000
H    -3.823000000    -4.834000000     0.261000000
O     4.684000000    -7.772000000     4.809000000
H     5.215000000    -7.056000000     5.156000000
H     3.788000000    -7.549000000     5.062000000
O     3.072000000    -5.461000000     6.289000000
H     3.452000000    -4.583000000     6.315000000
H     2.182000000    -5.328000000     5.965000000
O     6.672000000    -5.413000000     5.514000000
H     7.607000000    -5.391000000     5.717000000
H     6.567000000    -4.785000000     4.800000000
O    -1.566000000    -5.063000000     1.985000000
H    -1.528000000    -4.856000000     1.051000000
H    -0.718000000    -4.782000000     2.327000000
O     1.686000000    -6.086000000    -1.035000000
H     1.402000000    -5.628000000    -0.243000000
H     2.608000000    -6.289000000    -0.876000000
O    -0.678000000    -7.528000000    -0.864000000
H    -0.116000000    -6.767000000    -1.009000000
H    -0.256000000    -8.234000000    -1.353000000
O     6.953000000    -5.509000000     1.962000000
H     7.123000000    -4.729000000     2.490000000
H     5.998000000    -5.573000000     1.930000000
O     1.814000000    -9.804000000     3.094000000
H     1.757000000    -9.344000000     3.932000000
H     1.493000000    -9.171000000     2.452000000
O     4.167000000    -3.074000000     6.374000000
H     4.604000000    -2.360000000     5.909000000
H     4.693000000    -3.205000000     7.162000000
O     1.090000000    -7.374000000     1.978000000
H     0.751000000    -7.520000000     1.094000000
H     0.988000000    -6.433000000     2.121000000
O    -2.230000000    -5.047000000     5.100000000
H    -2.932000000    -4.936000000     5.741000000
H    -2.684000000    -5.170000000     4.266000000
O     4.197000000    -7.169000000    -1.036000000
H     4.815000000    -6.440000000    -0.977000000
H     4.417000000    -7.729000000    -0.291000000
O     0.426000000    -5.804000000     4.860000000
H    -0.498000000    -5.555000000     4.838000000
H     0.826000000    -5.302000000     4.151000000
O    -0.595000000    -3.277000000     6.954000000
H     0.242000000    -3.116000000     6.518000000
H    -1.059000000    -3.874000000     6.367000000
O     7.459000000    -3.402000000     3.684000000
H     8.214000000    -3.253000000     4.252000000
H     7.305000000    -2.556000000     3.263000000
O    -1.458000000    -7.858000000     3.888000000
H    -0.706000000    -7.336000000     4.167000000
H    -1.535000000    -7.687000000     2.950000000
O     1.458000000    -8.343000000     5.353000000
H     1.388000000    -8.444000000     6.302000000
H     1.159000000    -7.450000000     5.184000000
O     4.191000000    -5.823000000     1.837000000
H     4.005000000    -6.603000000     2.359000000
H     3.333000000    -5.429000000     1.681000000
O     1.574000000    -2.826000000     5.704000000
H     2.497000000    -2.754000000     5.947000000
H     1.587000000    -3.189000000     4.818000000
