201
-1235.39526
C    -4.736000000    -0.979000000    -1.864000000
H    -4.776000000    -0.091000000    -2.489000000
C    -4.599000000    -0.933000000    -0.478000000
C    -4.806000000    -2.146000000     0.253000000
H    -4.822000000    -2.137000000     1.339000000
C    -4.293000000     0.357000000     0.281000000
O    -4.850000000     1.515000000    -0.337000000
H    -3.215000000     0.570000000     0.333000000
O    -4.811000000     0.370000000     1.637000000
C    -3.955000000     0.817000000     2.539000000
C    -3.249000000    -0.128000000     3.244000000
H    -3.482000000    -1.189000000     3.214000000
C    -2.166000000     0.264000000     4.022000000
O    -1.499000000    -0.764000000     4.662000000
C    -1.874000000     1.605000000     4.213000000
C    -0.654000000     2.093000000     5.077000000
H    -0.712000000     3.129000000     5.417000000
C     0.711000000     1.966000000     4.335000000
C     1.292000000     3.102000000     3.736000000
H     0.706000000     4.015000000     3.805000000
H    -0.538000000     1.512000000     5.994000000
C    -2.681000000     2.588000000     3.548000000
H    -2.588000000     3.657000000     3.723000000
C    -3.684000000     2.213000000     2.624000000
C    -4.371000000     3.287000000     1.877000000
H    -4.387000000     4.221000000     2.441000000
H    -5.403000000     2.984000000     1.690000000
C    -3.698000000     3.455000000     0.488000000
C    -2.551000000     4.345000000     0.363000000
H    -2.282000000     4.964000000     1.214000000
C    -4.046000000     2.597000000    -0.549000000
C    -3.361000000     2.771000000    -1.797000000
H    -3.683000000     2.083000000    -2.575000000
C    -2.272000000     3.618000000    -1.981000000
O    -1.532000000     3.598000000    -3.113000000
C    -0.307000000     2.869000000    -2.964000000
C    -0.141000000     1.912000000    -4.184000000
C     1.106000000     1.276000000    -4.435000000
H     1.892000000     1.467000000    -3.709000000
C    -1.211000000     1.541000000    -5.007000000
H    -2.201000000     1.982000000    -4.927000000
O     0.689000000     3.873000000    -3.003000000
H    -0.302000000     2.246000000    -2.057000000
C    -1.860000000     4.425000000    -0.875000000
C    -0.701000000     5.381000000    -0.937000000
H    -0.761000000     6.137000000    -0.152000000
H    -0.733000000     5.929000000    -1.881000000
C     0.693000000     4.762000000    -0.753000000
C     1.196000000     4.824000000     0.534000000
H     0.649000000     5.349000000     1.313000000
C     1.362000000     4.091000000    -1.815000000
C     2.584000000     3.566000000    -1.523000000
H     3.111000000     2.943000000    -2.241000000
C     3.136000000     3.613000000    -0.260000000
O     4.311000000     2.896000000    -0.018000000
C     4.007000000     1.609000000     0.613000000
C     4.995000000     0.586000000     0.109000000
C     5.406000000     0.587000000    -1.236000000
H     5.132000000     1.363000000    -1.946000000
C     5.318000000    -0.508000000     0.923000000
H     4.850000000    -0.699000000     1.885000000
O     4.158000000     1.610000000     2.077000000
H     3.007000000     1.331000000     0.249000000
C     2.439000000     4.216000000     0.787000000
C     2.968000000     4.239000000     2.179000000
H     2.720000000     5.171000000     2.689000000
H     4.047000000     4.095000000     2.087000000
C     2.516000000     3.032000000     3.014000000
C     3.093000000     1.789000000     2.889000000
C     2.575000000     0.676000000     3.488000000
H     3.059000000    -0.293000000     3.401000000
C     1.365000000     0.808000000     4.147000000
O     0.844000000    -0.336000000     4.677000000
C    -0.198000000    -1.080000000     3.969000000
H    -0.251000000    -0.807000000     2.905000000
C     0.090000000    -2.580000000     3.932000000
C    -0.927000000    -3.489000000     4.003000000
H    -1.931000000    -3.119000000     4.191000000
C     1.373000000    -3.093000000     3.625000000
H     2.086000000    -2.278000000     3.532000000
C     1.626000000    -4.414000000     3.496000000
O     2.797000000    -4.911000000     3.079000000
C     0.570000000    -5.273000000     3.504000000
H     0.707000000    -6.327000000     3.277000000
C    -0.748000000    -4.865000000     3.802000000
O    -1.749000000    -5.746000000     3.755000000
C    -2.995000000    -5.364000000     3.361000000
C    -3.288000000    -4.987000000     2.057000000
H    -2.497000000    -4.990000000     1.311000000
C    -4.041000000    -5.346000000     4.283000000
H    -3.883000000    -5.733000000     5.286000000
C    -5.343000000    -4.928000000     3.932000000
H    -6.185000000    -4.864000000     4.617000000
C    -5.572000000    -4.672000000     2.616000000
H    -6.578000000    -4.363000000     2.343000000
C    -4.612000000    -4.704000000     1.675000000
O    -4.971000000    -4.563000000     0.343000000
C    -4.757000000    -3.353000000    -0.368000000
C    -4.576000000    -3.382000000    -1.738000000
H    -4.426000000    -4.340000000    -2.229000000
C    -4.699000000    -2.232000000    -2.527000000
O    -4.450000000    -2.392000000    -3.844000000
C    -4.520000000    -1.438000000    -4.808000000
C    -3.380000000    -0.999000000    -5.277000000
H    -2.439000000    -1.135000000    -4.751000000
C    -5.765000000    -1.059000000    -5.347000000
H    -6.712000000    -1.407000000    -4.941000000
C    -5.751000000    -0.200000000    -6.414000000
H    -6.680000000     0.041000000    -6.924000000
C    -4.524000000     0.327000000    -6.919000000
H    -4.565000000     0.892000000    -7.846000000
C    -3.337000000    -0.076000000    -6.275000000
O    -2.101000000     0.350000000    -6.817000000
C    -1.000000000     0.577000000    -6.021000000
C     0.216000000    -0.066000000    -6.232000000
H     0.338000000    -0.700000000    -7.107000000
C     1.270000000     0.244000000    -5.357000000
O     2.520000000    -0.302000000    -5.624000000
C     3.733000000     0.187000000    -5.285000000
C     4.495000000    -0.376000000    -4.283000000
H     4.032000000    -1.142000000    -3.665000000
C     4.420000000     0.906000000    -6.285000000
H     3.871000000     1.178000000    -7.183000000
C     5.754000000     1.271000000    -6.063000000
H     6.127000000     1.997000000    -6.781000000
C     6.434000000     0.995000000    -4.895000000
H     7.456000000     1.278000000    -4.655000000
C     5.787000000     0.137000000    -3.969000000
O     6.530000000    -0.421000000    -2.912000000
C     6.141000000    -0.420000000    -1.679000000
C     6.570000000    -1.422000000    -0.862000000
H     7.253000000    -2.147000000    -1.299000000
C     6.142000000    -1.496000000     0.456000000
O     6.545000000    -2.547000000     1.268000000
C     5.895000000    -2.999000000     2.355000000
C     6.381000000    -2.826000000     3.661000000
H     7.232000000    -2.173000000     3.836000000
C     5.702000000    -3.349000000     4.707000000
H     5.988000000    -3.000000000     5.696000000
C     4.481000000    -3.988000000     4.527000000
H     3.798000000    -4.351000000     5.291000000
C     4.021000000    -4.241000000     3.196000000
C     4.700000000    -3.724000000     2.089000000
H     4.241000000    -3.896000000     1.119000000
O    -3.345000000    -6.648000000    -1.128000000
H    -3.684000000    -5.899000000    -0.638000000
H    -3.742000000    -7.410000000    -0.706000000
O     0.456000000    -7.511000000    -5.351000000
H    -0.228000000    -8.155000000    -5.167000000
H     0.867000000    -7.349000000    -4.502000000
O     0.739000000    -7.291000000    -2.729000000
H     0.140000000    -7.994000000    -2.475000000
H     0.464000000    -6.540000000    -2.203000000
O     5.323000000    -4.638000000    -3.287000000
H     5.095000000    -5.476000000    -2.885000000
H     4.555000000    -4.086000000    -3.142000000
O     0.263000000    -7.717000000     0.960000000
H    -0.480000000    -8.271000000     1.199000000
H    -0.115000000    -7.033000000     0.407000000
O     3.146000000    -6.861000000    -0.039000000
H     2.669000000    -7.019000000     0.775000000
H     2.669000000    -6.148000000    -0.463000000
O     2.913000000    -3.694000000    -3.088000000
H     2.555000000    -4.161000000    -2.333000000
H     2.172000000    -3.607000000    -3.688000000
O     0.609000000    -1.247000000    -2.428000000
H    -0.235000000    -1.356000000    -1.990000000
H     1.256000000    -1.471000000    -1.759000000
O     4.988000000    -7.041000000    -1.961000000
H     4.420000000    -7.499000000    -2.582000000
H     4.447000000    -6.931000000    -1.179000000
O    -2.736000000    -6.923000000    -3.864000000
H    -2.410000000    -7.822000000    -3.914000000
H    -3.217000000    -6.889000000    -3.037000000
O     0.506000000    -3.104000000    -4.460000000
H     0.431000000    -2.321000000    -3.914000000
H    -0.102000000    -3.730000000    -4.066000000
O     2.343000000    -9.618000000    -0.704000000
H     2.821000000    -8.897000000    -0.293000000
H     1.477000000    -9.255000000    -0.891000000
O    -1.027000000    -9.561000000    -1.646000000
H    -1.347000000   -10.371000000    -2.044000000
H    -1.606000000    -9.416000000    -0.898000000
O     6.338000000    -7.177000000     1.267000000
H     5.665000000    -7.813000000     1.511000000
H     6.000000000    -6.762000000     0.474000000
O     2.584000000    -6.051000000    -6.556000000
H     2.333000000    -5.131000000    -6.641000000
H     1.914000000    -6.430000000    -5.986000000
O     2.158000000    -8.298000000     2.700000000
H     1.455000000    -8.273000000     2.052000000
H     1.712000000    -8.205000000     3.542000000
O     3.346000000    -8.496000000    -3.335000000
H     2.433000000    -8.270000000    -3.156000000
H     3.472000000    -9.342000000    -2.905000000
O    -1.443000000    -4.660000000    -2.933000000
H    -2.048000000    -5.259000000    -3.370000000
H    -1.301000000    -5.050000000    -2.071000000
O    -1.518000000    -5.802000000    -6.061000000
H    -2.228000000    -6.006000000    -5.452000000
H    -0.751000000    -6.236000000    -5.688000000
