201
-1243.53236
C     4.592000000    -1.804000000    -1.189000000
H     4.710000000    -1.204000000    -0.290000000
C     4.009000000    -1.310000000    -2.353000000
C     3.795000000    -2.207000000    -3.408000000
H     3.472000000    -1.879000000    -4.393000000
C     3.477000000     0.090000000    -2.500000000
O     4.387000000     1.073000000    -1.886000000
H     2.553000000     0.151000000    -1.906000000
O     3.232000000     0.488000000    -3.830000000
C     2.041000000     1.125000000    -4.002000000
C     1.004000000     0.395000000    -4.490000000
H     1.126000000    -0.666000000    -4.690000000
C    -0.273000000     0.939000000    -4.527000000
O    -1.368000000     0.114000000    -4.730000000
C    -0.541000000     2.300000000    -4.170000000
C    -1.933000000     2.811000000    -4.241000000
H    -1.984000000     3.864000000    -4.528000000
C    -2.650000000     2.650000000    -2.905000000
C    -2.588000000     3.667000000    -1.928000000
H    -1.964000000     4.527000000    -2.155000000
H    -2.504000000     2.337000000    -5.042000000
C     0.581000000     3.135000000    -3.827000000
H     0.522000000     4.179000000    -3.531000000
C     1.891000000     2.494000000    -3.743000000
C     3.107000000     3.379000000    -3.260000000
H     2.851000000     4.435000000    -3.375000000
H     3.984000000     3.264000000    -3.901000000
C     3.246000000     3.182000000    -1.733000000
C     2.598000000     4.123000000    -0.930000000
H     2.065000000     4.922000000    -1.439000000
C     3.773000000     2.079000000    -1.140000000
C     3.801000000     1.886000000     0.183000000
H     4.256000000     1.003000000     0.623000000
C     3.208000000     2.874000000     1.007000000
O     3.205000000     2.576000000     2.372000000
C     1.988000000     1.992000000     2.840000000
C     2.386000000     0.914000000     3.775000000
C     1.750000000     0.819000000     5.035000000
H     0.823000000     1.378000000     5.128000000
C     3.446000000     0.014000000     3.576000000
H     4.004000000    -0.015000000     2.644000000
O     1.309000000     3.076000000     3.445000000
H     1.374000000     1.523000000     2.057000000
C     2.595000000     4.010000000     0.463000000
C     1.853000000     5.066000000     1.295000000
H     1.675000000     6.033000000     0.819000000
H     2.506000000     5.296000000     2.139000000
C     0.460000000     4.586000000     1.750000000
C    -0.676000000     4.832000000     0.951000000
H    -0.489000000     5.476000000     0.095000000
C     0.260000000     3.717000000     2.842000000
C    -1.016000000     3.361000000     3.238000000
H    -1.126000000     2.675000000     4.074000000
C    -2.147000000     3.687000000     2.478000000
O    -3.356000000     3.081000000     2.773000000
C    -3.682000000     1.888000000     1.926000000
C    -4.235000000     0.734000000     2.786000000
C    -3.585000000     0.451000000     3.987000000
H    -2.792000000     1.149000000     4.242000000
C    -5.191000000    -0.076000000     2.286000000
H    -5.601000000     0.131000000     1.301000000
O    -4.531000000     2.298000000     0.862000000
H    -2.805000000     1.363000000     1.520000000
C    -1.972000000     4.454000000     1.275000000
C    -3.042000000     4.776000000     0.261000000
H    -2.725000000     5.629000000    -0.343000000
H    -4.026000000     4.983000000     0.687000000
C    -3.209000000     3.622000000    -0.728000000
C    -3.973000000     2.448000000    -0.373000000
C    -3.990000000     1.401000000    -1.288000000
H    -4.522000000     0.465000000    -1.137000000
C    -3.352000000     1.522000000    -2.562000000
O    -3.414000000     0.444000000    -3.443000000
C    -2.136000000    -0.320000000    -3.616000000
H    -1.532000000    -0.102000000    -2.723000000
C    -2.412000000    -1.830000000    -3.628000000
C    -1.604000000    -2.720000000    -4.341000000
H    -0.839000000    -2.342000000    -5.015000000
C    -3.284000000    -2.344000000    -2.662000000
H    -3.693000000    -1.696000000    -1.892000000
C    -3.494000000    -3.741000000    -2.553000000
O    -4.322000000    -4.246000000    -1.549000000
C    -2.658000000    -4.601000000    -3.324000000
H    -2.937000000    -5.651000000    -3.289000000
C    -1.710000000    -4.070000000    -4.192000000
O    -0.900000000    -4.927000000    -4.913000000
C     0.274000000    -4.526000000    -5.429000000
C     1.366000000    -4.586000000    -4.583000000
H     1.228000000    -4.882000000    -3.546000000
C     0.349000000    -4.249000000    -6.820000000
H    -0.516000000    -4.180000000    -7.476000000
C     1.597000000    -3.836000000    -7.312000000
H     1.800000000    -3.530000000    -8.334000000
C     2.692000000    -3.913000000    -6.493000000
H     3.678000000    -3.724000000    -6.910000000
C     2.572000000    -4.214000000    -5.135000000
O     3.757000000    -4.303000000    -4.437000000
C     4.006000000    -3.545000000    -3.310000000
C     4.464000000    -4.050000000    -2.069000000
H     4.686000000    -5.093000000    -1.861000000
C     4.798000000    -3.167000000    -0.988000000
O     5.094000000    -3.716000000     0.250000000
C     5.705000000    -2.964000000     1.194000000
C     5.043000000    -2.695000000     2.368000000
H     4.014000000    -3.001000000     2.535000000
C     7.067000000    -2.618000000     1.052000000
H     7.530000000    -2.867000000     0.101000000
C     7.713000000    -1.789000000     1.983000000
H     8.727000000    -1.425000000     1.835000000
C     6.965000000    -1.485000000     3.151000000
H     7.412000000    -0.842000000     3.905000000
C     5.645000000    -1.930000000     3.347000000
O     5.020000000    -1.622000000     4.503000000
C     3.946000000    -0.768000000     4.598000000
C     3.311000000    -0.779000000     5.843000000
H     3.685000000    -1.418000000     6.639000000
C     2.169000000    -0.075000000     6.036000000
O     1.428000000    -0.139000000     7.211000000
C     0.093000000     0.137000000     7.203000000
C    -0.907000000    -0.629000000     6.515000000
H    -0.611000000    -1.537000000     5.995000000
C    -0.395000000     1.245000000     7.877000000
H     0.244000000     1.941000000     8.415000000
C    -1.759000000     1.562000000     7.896000000
H    -2.070000000     2.436000000     8.463000000
C    -2.665000000     0.779000000     7.238000000
H    -3.721000000     1.036000000     7.253000000
C    -2.241000000    -0.246000000     6.455000000
O    -3.154000000    -1.087000000     5.820000000
C    -3.829000000    -0.734000000     4.677000000
C    -4.800000000    -1.626000000     4.094000000
H    -4.996000000    -2.600000000     4.536000000
C    -5.469000000    -1.268000000     2.886000000
O    -6.379000000    -2.105000000     2.194000000
C    -6.386000000    -2.435000000     0.836000000
C    -7.482000000    -2.071000000     0.061000000
H    -8.249000000    -1.394000000     0.428000000
C    -7.415000000    -2.353000000    -1.321000000
H    -8.199000000    -2.018000000    -1.995000000
C    -6.316000000    -3.050000000    -1.889000000
H    -6.408000000    -3.394000000    -2.916000000
C    -5.381000000    -3.564000000    -1.015000000
C    -5.315000000    -3.151000000     0.326000000
H    -4.520000000    -3.526000000     0.966000000
O    -2.874000000    -5.163000000     3.325000000
H    -2.117000000    -4.998000000     3.887000000
H    -2.553000000    -5.003000000     2.437000000
O     6.725000000    -6.525000000     4.290000000
H     7.083000000    -6.162000000     3.479000000
H     5.810000000    -6.246000000     4.293000000
O     3.768000000    -5.519000000     4.057000000
H     3.046000000    -4.995000000     3.710000000
H     3.398000000    -6.396000000     4.160000000
O    -2.491000000    -4.964000000     0.853000000
H    -2.888000000    -4.992000000    -0.017000000
H    -1.550000000    -5.027000000     0.689000000
O     3.558000000    -6.239000000     0.664000000
H     4.448000000    -6.196000000     1.012000000
H     3.094000000    -5.528000000     1.105000000
O     0.348000000    -6.738000000     3.924000000
H     0.022000000    -5.955000000     4.368000000
H     0.387000000    -6.491000000     3.000000000
O     0.004000000    -5.940000000     0.190000000
H     0.302000000    -6.051000000    -0.713000000
H     0.805000000    -5.968000000     0.712000000
O     3.079000000    -8.683000000     2.645000000
H     2.718000000    -8.446000000     3.499000000
H     3.470000000    -7.874000000     2.317000000
O     2.970000000    -6.915000000    -1.833000000
H     2.017000000    -7.000000000    -1.863000000
H     3.156000000    -6.614000000    -0.944000000
O     0.909000000    -9.795000000     1.128000000
H     0.211000000    -9.148000000     1.021000000
H     1.496000000    -9.409000000     1.778000000
O     4.890000000    -4.367000000     6.145000000
H     4.185000000    -3.830000000     6.508000000
H     4.504000000    -4.776000000     5.371000000
O    -1.302000000    -8.133000000     0.896000000
H    -1.815000000    -8.291000000     0.103000000
H    -0.907000000    -7.272000000     0.757000000
O    -2.266000000    -6.491000000     6.561000000
H    -1.660000000    -5.765000000     6.415000000
H    -2.099000000    -6.766000000     7.462000000
O    -0.888000000    -4.365000000     5.383000000
H    -0.924000000    -3.798000000     6.154000000
H    -0.272000000    -3.929000000     4.794000000
O     3.143000000    -7.731000000     5.628000000
H     2.205000000    -7.670000000     5.446000000
H     3.332000000    -6.962000000     6.167000000
O    -0.170000000    -3.357000000     7.926000000
H    -0.336000000    -4.124000000     8.474000000
H     0.224000000    -2.719000000     8.521000000
O     0.307000000    -7.228000000    -2.231000000
H     0.104000000    -7.388000000    -3.152000000
H    -0.217000000    -7.872000000    -1.755000000
O     0.130000000    -9.479000000     4.561000000
H    -0.363000000    -8.658000000     4.589000000
H    -0.074000000    -9.909000000     5.391000000
O     1.973000000    -3.986000000     6.438000000
H     1.172000000    -3.904000000     6.955000000
H     1.689000000    -3.855000000     5.533000000
