201
-1233.80373
C     4.968000000    -1.128000000    -0.949000000
H     5.355000000    -0.195000000    -0.547000000
C     4.045000000    -1.041000000    -2.033000000
C     3.519000000    -2.217000000    -2.629000000
H     2.734000000    -2.065000000    -3.367000000
C     3.430000000     0.364000000    -2.401000000
O     4.338000000     1.404000000    -2.079000000
H     2.551000000     0.297000000    -1.743000000
O     3.039000000     0.494000000    -3.771000000
C     1.815000000     0.987000000    -4.000000000
C     0.889000000     0.054000000    -4.441000000
H     1.252000000    -0.965000000    -4.551000000
C    -0.434000000     0.535000000    -4.664000000
O    -1.308000000    -0.431000000    -5.019000000
C    -0.809000000     1.865000000    -4.517000000
C    -2.226000000     2.479000000    -4.772000000
H    -2.162000000     3.527000000    -5.074000000
C    -3.010000000     2.339000000    -3.428000000
C    -3.118000000     3.318000000    -2.477000000
H    -2.683000000     4.287000000    -2.707000000
H    -2.728000000     1.956000000    -5.589000000
C     0.206000000     2.754000000    -4.003000000
H     0.029000000     3.825000000    -3.933000000
C     1.503000000     2.333000000    -3.833000000
C     2.546000000     3.331000000    -3.457000000
H     2.276000000     4.343000000    -3.767000000
H     3.430000000     3.107000000    -4.057000000
C     2.960000000     3.420000000    -2.051000000
C     2.267000000     4.455000000    -1.305000000
H     1.655000000     5.197000000    -1.811000000
C     3.729000000     2.434000000    -1.408000000
C     3.845000000     2.566000000    -0.005000000
H     4.584000000     1.990000000     0.546000000
C     3.091000000     3.471000000     0.778000000
O     3.136000000     3.415000000     2.158000000
C     1.996000000     2.806000000     2.781000000
C     2.353000000     1.870000000     3.919000000
C     1.707000000     1.953000000     5.173000000
H     0.821000000     2.560000000     5.339000000
C     3.291000000     0.903000000     3.699000000
H     3.883000000     0.990000000     2.792000000
O     1.036000000     3.823000000     3.259000000
H     1.532000000     2.097000000     2.080000000
C     2.211000000     4.383000000     0.140000000
C     1.318000000     5.361000000     0.884000000
H     1.115000000     6.256000000     0.291000000
H     1.891000000     5.791000000     1.708000000
C     0.009000000     4.738000000     1.323000000
C    -1.116000000     4.749000000     0.514000000
H    -1.043000000     5.332000000    -0.401000000
C    -0.106000000     4.042000000     2.512000000
C    -1.304000000     3.444000000     2.878000000
H    -1.324000000     2.738000000     3.704000000
C    -2.362000000     3.391000000     2.012000000
O    -3.323000000     2.452000000     2.228000000
C    -3.333000000     1.313000000     1.429000000
C    -3.669000000     0.089000000     2.279000000
C    -3.054000000    -0.091000000     3.567000000
H    -2.412000000     0.707000000     3.930000000
C    -4.394000000    -0.971000000     1.812000000
H    -4.768000000    -0.983000000     0.792000000
O    -4.311000000     1.450000000     0.402000000
H    -2.289000000     1.163000000     1.117000000
C    -2.289000000     4.180000000     0.858000000
C    -3.439000000     4.255000000    -0.095000000
H    -3.613000000     5.238000000    -0.538000000
H    -4.275000000     4.187000000     0.605000000
C    -3.504000000     3.081000000    -1.138000000
C    -3.978000000     1.842000000    -0.879000000
C    -4.026000000     0.821000000    -1.780000000
H    -4.370000000    -0.172000000    -1.501000000
C    -3.494000000     1.078000000    -3.063000000
O    -3.311000000     0.002000000    -3.844000000
C    -2.046000000    -0.801000000    -3.850000000
H    -1.428000000    -0.729000000    -2.943000000
C    -2.441000000    -2.288000000    -3.828000000
C    -1.494000000    -3.254000000    -4.359000000
H    -0.602000000    -2.759000000    -4.736000000
C    -3.630000000    -2.699000000    -3.260000000
H    -4.235000000    -1.922000000    -2.802000000
C    -3.891000000    -4.101000000    -3.162000000
O    -5.007000000    -4.601000000    -2.487000000
C    -3.067000000    -5.011000000    -3.768000000
H    -3.283000000    -6.076000000    -3.793000000
C    -1.815000000    -4.652000000    -4.242000000
O    -0.877000000    -5.529000000    -4.782000000
C     0.469000000    -5.302000000    -4.847000000
C     1.203000000    -5.148000000    -3.694000000
H     0.757000000    -5.213000000    -2.704000000
C     1.022000000    -4.890000000    -6.035000000
H     0.420000000    -4.876000000    -6.941000000
C     2.339000000    -4.461000000    -6.127000000
H     2.828000000    -4.171000000    -7.053000000
C     3.141000000    -4.426000000    -4.980000000
H     4.177000000    -4.112000000    -5.074000000
C     2.584000000    -4.680000000    -3.784000000
O     3.394000000    -4.633000000    -2.618000000
C     3.914000000    -3.458000000    -2.109000000
C     4.876000000    -3.534000000    -1.054000000
H     5.186000000    -4.483000000    -0.624000000
C     5.367000000    -2.378000000    -0.476000000
O     6.301000000    -2.408000000     0.459000000
C     6.436000000    -1.560000000     1.527000000
C     5.396000000    -1.419000000     2.490000000
H     4.471000000    -1.980000000     2.380000000
C     7.721000000    -0.989000000     1.727000000
H     8.534000000    -1.099000000     1.014000000
C     7.977000000    -0.247000000     2.891000000
H     8.945000000     0.216000000     3.067000000
C     6.960000000    -0.086000000     3.793000000
H     7.014000000     0.454000000     4.735000000
C     5.702000000    -0.654000000     3.617000000
O     4.867000000    -0.637000000     4.666000000
C     3.725000000     0.094000000     4.748000000
C     3.093000000     0.157000000     5.975000000
H     3.320000000    -0.576000000     6.745000000
C     2.002000000     1.009000000     6.140000000
O     1.190000000     0.821000000     7.305000000
C    -0.134000000     0.702000000     7.148000000
C    -0.630000000    -0.358000000     6.307000000
H     0.038000000    -1.127000000     5.928000000
C    -0.974000000     1.535000000     7.887000000
H    -0.532000000     2.370000000     8.426000000
C    -2.388000000     1.288000000     7.728000000
H    -3.139000000     1.788000000     8.334000000
C    -2.811000000     0.345000000     6.813000000
H    -3.880000000     0.170000000     6.715000000
C    -1.966000000    -0.456000000     6.135000000
O    -2.499000000    -1.500000000     5.389000000
C    -3.141000000    -1.306000000     4.235000000
C    -3.836000000    -2.345000000     3.733000000
H    -3.849000000    -3.339000000     4.173000000
C    -4.440000000    -2.172000000     2.488000000
O    -5.138000000    -3.291000000     2.074000000
C    -5.743000000    -3.427000000     0.857000000
C    -6.985000000    -2.790000000     0.629000000
H    -7.443000000    -2.204000000     1.422000000
C    -7.498000000    -2.714000000    -0.598000000
H    -8.460000000    -2.252000000    -0.806000000
C    -6.759000000    -3.266000000    -1.654000000
H    -7.168000000    -3.219000000    -2.660000000
C    -5.655000000    -4.011000000    -1.459000000
C    -5.069000000    -4.066000000    -0.173000000
H    -4.115000000    -4.584000000    -0.119000000
O     3.470000000    -8.524000000     4.449000000
H     2.701000000    -8.781000000     4.958000000
H     3.372000000    -7.580000000     4.327000000
O     2.367000000    -7.077000000     8.019000000
H     2.665000000    -6.759000000     7.166000000
H     2.968000000    -6.676000000     8.647000000
O    -2.229000000    -5.647000000     3.402000000
H    -1.454000000    -6.013000000     2.977000000
H    -1.896000000    -4.905000000     3.908000000
O     4.936000000    -4.940000000     1.891000000
H     4.018000000    -4.745000000     1.700000000
H     5.236000000    -4.195000000     2.411000000
O    -1.365000000    -5.669000000    -0.953000000
H    -0.516000000    -6.037000000    -0.711000000
H    -1.244000000    -4.722000000    -0.884000000
O     1.187000000    -5.475000000    -0.074000000
H     1.517000000    -4.999000000     0.688000000
H     1.970000000    -5.690000000    -0.581000000
O     1.122000000    -9.022000000     1.237000000
H     2.052000000    -8.852000000     1.086000000
H     0.678000000    -8.580000000     0.514000000
O     6.038000000    -7.391000000     2.312000000
H     5.328000000    -8.027000000     2.221000000
H     5.690000000    -6.587000000     1.925000000
O     3.787000000    -4.891000000     7.049000000
H     4.456000000    -4.952000000     6.368000000
H     4.207000000    -5.252000000     7.830000000
O     0.270000000    -6.638000000     2.580000000
H     0.669000000    -7.493000000     2.423000000
H     0.849000000    -6.019000000     2.135000000
O    -0.750000000    -3.633000000     4.454000000
H    -0.801000000    -3.105000000     5.250000000
H     0.084000000    -3.384000000     4.054000000
O     3.916000000    -7.947000000     0.405000000
H     4.772000000    -7.890000000    -0.021000000
H     3.288000000    -7.905000000    -0.316000000
O     0.401000000    -6.220000000     5.226000000
H     0.190000000    -5.342000000     5.544000000
H     0.215000000    -6.186000000     4.288000000
O    -0.207000000    -3.476000000     7.522000000
H    -0.094000000    -3.136000000     8.410000000
H     0.674000000    -3.467000000     7.149000000
O     5.658000000    -5.959000000     4.641000000
H     5.917000000    -6.308000000     3.789000000
H     4.716000000    -5.809000000     4.562000000
O    -3.031000000    -7.349000000     0.454000000
H    -2.345000000    -6.877000000    -0.017000000
H    -2.640000000    -8.198000000     0.661000000
O     0.813000000    -9.028000000     5.459000000
H     0.163000000    -9.394000000     6.059000000
H     0.713000000    -8.080000000     5.547000000
O     3.024000000    -5.586000000     4.404000000
H     2.234000000    -5.770000000     4.913000000
H     2.839000000    -4.754000000     3.967000000
O     2.062000000    -3.103000000     6.280000000
H     2.661000000    -3.800000000     6.549000000
H     2.019000000    -3.178000000     5.327000000
