201
-1248.59887
C     4.128000000    -1.852000000     0.087000000
H     4.149000000    -1.066000000     0.838000000
C     4.170000000    -1.475000000    -1.252000000
C     4.453000000    -2.450000000    -2.192000000
H     4.526000000    -2.135000000    -3.230000000
C     4.210000000    -0.007000000    -1.662000000
O     5.060000000     0.904000000    -0.855000000
H     3.156000000     0.168000000    -1.400000000
O     4.306000000     0.332000000    -3.063000000
C     3.217000000     0.954000000    -3.558000000
C     2.185000000     0.209000000    -4.199000000
H     2.174000000    -0.870000000    -4.331000000
C     0.992000000     0.839000000    -4.625000000
O    -0.073000000    -0.015000000    -5.061000000
C     0.762000000     2.216000000    -4.404000000
C    -0.492000000     2.989000000    -4.706000000
H    -0.425000000     4.079000000    -4.737000000
C    -1.541000000     2.779000000    -3.591000000
C    -1.669000000     3.823000000    -2.637000000
H    -1.015000000     4.687000000    -2.716000000
H    -0.989000000     2.727000000    -5.642000000
C     1.834000000     2.911000000    -3.816000000
H     1.556000000     3.932000000    -3.570000000
C     3.029000000     2.336000000    -3.337000000
C     4.097000000     3.132000000    -2.606000000
H     4.300000000     4.133000000    -2.992000000
H     5.018000000     2.593000000    -2.838000000
C     3.916000000     3.017000000    -1.093000000
C     3.183000000     4.043000000    -0.522000000
H     2.813000000     4.825000000    -1.179000000
C     4.348000000     1.910000000    -0.314000000
C     3.925000000     1.836000000     1.036000000
H     4.368000000     1.043000000     1.633000000
C     3.192000000     2.894000000     1.602000000
O     2.786000000     2.735000000     2.952000000
C     1.484000000     2.383000000     3.279000000
C     1.463000000     1.400000000     4.351000000
C     0.175000000     0.908000000     4.709000000
H    -0.703000000     1.427000000     4.333000000
C     2.646000000     0.797000000     4.761000000
H     3.602000000     1.204000000     4.441000000
O     0.766000000     3.604000000     3.613000000
H     0.962000000     1.950000000     2.414000000
C     2.799000000     3.975000000     0.767000000
C     1.950000000     5.114000000     1.413000000
H     2.096000000     6.002000000     0.795000000
H     2.331000000     5.335000000     2.413000000
C     0.488000000     4.751000000     1.506000000
C    -0.376000000     5.052000000     0.423000000
H    -0.056000000     5.546000000    -0.491000000
C     0.003000000     3.992000000     2.543000000
C    -1.334000000     3.562000000     2.631000000
H    -1.593000000     2.965000000     3.502000000
C    -2.234000000     3.896000000     1.643000000
O    -3.460000000     3.311000000     1.591000000
C    -3.754000000     2.194000000     0.745000000
C    -4.653000000     1.131000000     1.370000000
C    -4.788000000     1.004000000     2.768000000
H    -4.214000000     1.599000000     3.474000000
C    -5.395000000     0.322000000     0.536000000
H    -5.208000000     0.446000000    -0.528000000
O    -4.268000000     2.608000000    -0.532000000
H    -2.875000000     1.552000000     0.583000000
C    -1.707000000     4.662000000     0.542000000
C    -2.664000000     4.967000000    -0.676000000
H    -2.328000000     5.782000000    -1.321000000
H    -3.723000000     5.100000000    -0.443000000
C    -2.617000000     3.828000000    -1.633000000
C    -3.398000000     2.727000000    -1.527000000
C    -3.334000000     1.689000000    -2.420000000
H    -3.979000000     0.818000000    -2.339000000
C    -2.348000000     1.635000000    -3.404000000
O    -2.233000000     0.406000000    -4.091000000
C    -1.004000000    -0.348000000    -3.930000000
H    -0.602000000    -0.010000000    -2.964000000
C    -1.276000000    -1.802000000    -3.796000000
C    -0.439000000    -2.749000000    -4.299000000
H     0.261000000    -2.539000000    -5.105000000
C    -2.202000000    -2.145000000    -2.846000000
H    -2.810000000    -1.362000000    -2.401000000
C    -2.466000000    -3.507000000    -2.549000000
O    -3.523000000    -3.891000000    -1.734000000
C    -1.684000000    -4.454000000    -3.117000000
H    -1.810000000    -5.499000000    -2.845000000
C    -0.679000000    -4.102000000    -4.023000000
O     0.045000000    -5.118000000    -4.524000000
C     1.390000000    -5.056000000    -4.640000000
C     2.172000000    -4.830000000    -3.501000000
H     1.756000000    -4.733000000    -2.501000000
C     1.878000000    -5.277000000    -5.892000000
H     1.193000000    -5.353000000    -6.732000000
C     3.239000000    -5.352000000    -6.055000000
H     3.763000000    -5.407000000    -7.006000000
C     4.085000000    -5.189000000    -4.990000000
H     5.152000000    -5.130000000    -5.188000000
C     3.584000000    -4.899000000    -3.734000000
O     4.481000000    -4.681000000    -2.762000000
C     4.384000000    -3.768000000    -1.804000000
C     4.190000000    -4.159000000    -0.509000000
H     4.214000000    -5.197000000    -0.187000000
C     4.075000000    -3.162000000     0.471000000
O     4.175000000    -3.526000000     1.819000000
C     4.770000000    -2.712000000     2.797000000
C     3.990000000    -2.103000000     3.725000000
H     2.928000000    -2.336000000     3.703000000
C     6.169000000    -2.609000000     2.832000000
H     6.711000000    -2.997000000     1.974000000
C     6.816000000    -1.929000000     3.845000000
H     7.902000000    -1.892000000     3.812000000
C     6.033000000    -1.391000000     4.912000000
H     6.564000000    -0.828000000     5.675000000
C     4.648000000    -1.471000000     4.841000000
O     3.772000000    -1.040000000     5.883000000
C     2.540000000    -0.344000000     5.571000000
C     1.217000000    -0.761000000     6.016000000
H     1.223000000    -1.667000000     6.616000000
C     0.110000000    -0.157000000     5.559000000
O    -1.089000000    -0.791000000     5.787000000
C    -2.310000000    -0.232000000     6.090000000
C    -3.439000000    -0.518000000     5.264000000
H    -3.373000000    -1.195000000     4.417000000
C    -2.424000000     0.604000000     7.151000000
H    -1.590000000     0.760000000     7.830000000
C    -3.677000000     1.148000000     7.363000000
H    -3.764000000     1.805000000     8.225000000
C    -4.810000000     0.823000000     6.600000000
H    -5.780000000     1.288000000     6.759000000
C    -4.669000000     0.097000000     5.464000000
O    -5.709000000    -0.171000000     4.719000000
C    -5.647000000     0.043000000     3.318000000
C    -6.421000000    -0.711000000     2.501000000
H    -7.058000000    -1.487000000     2.916000000
C    -6.303000000    -0.550000000     1.075000000
O    -7.128000000    -1.262000000     0.186000000
C    -6.595000000    -2.123000000    -0.757000000
C    -7.446000000    -2.416000000    -1.831000000
H    -8.499000000    -2.148000000    -1.800000000
C    -7.041000000    -3.320000000    -2.818000000
H    -7.640000000    -3.508000000    -3.705000000
C    -5.714000000    -3.822000000    -2.752000000
H    -5.374000000    -4.535000000    -3.499000000
C    -4.814000000    -3.368000000    -1.810000000
C    -5.284000000    -2.489000000    -0.792000000
H    -4.533000000    -2.200000000    -0.061000000
O    -1.911000000    -3.484000000     5.690000000
H    -1.380000000    -2.691000000     5.761000000
H    -1.910000000    -3.854000000     6.573000000
O    -5.391000000    -3.820000000     1.911000000
H    -4.573000000    -4.229000000     1.629000000
H    -5.161000000    -3.352000000     2.713000000
O     0.673000000    -6.664000000     6.643000000
H     0.648000000    -7.309000000     5.936000000
H     0.791000000    -5.825000000     6.197000000
O    -4.117000000    -7.627000000     1.936000000
H    -3.844000000    -6.712000000     1.873000000
H    -4.731000000    -7.644000000     2.670000000
O     0.951000000    -6.871000000     3.389000000
H     0.803000000    -5.965000000     3.118000000
H     0.357000000    -7.384000000     2.842000000
O    -4.411000000    -3.974000000     4.725000000
H    -4.928000000    -3.485000000     5.365000000
H    -3.523000000    -3.630000000     4.821000000
O    -0.105000000    -6.739000000    -1.382000000
H    -0.928000000    -7.011000000    -0.973000000
H     0.279000000    -6.124000000    -0.757000000
O     5.693000000    -6.753000000     1.802000000
H     4.774000000    -6.615000000     1.569000000
H     5.889000000    -7.636000000     1.488000000
O    -1.645000000    -8.496000000     4.155000000
H    -1.052000000    -8.817000000     3.476000000
H    -1.819000000    -7.586000000     3.912000000
O    -3.296000000    -4.954000000     0.994000000
H    -2.344000000    -4.925000000     1.095000000
H    -3.434000000    -5.370000000     0.143000000
O    -0.155000000    -8.740000000     1.685000000
H    -0.803000000    -9.201000000     1.152000000
H     0.660000000    -8.815000000     1.190000000
O     2.771000000    -6.611000000     1.459000000
H     2.377000000    -6.990000000     2.245000000
H     2.110000000    -6.002000000     1.130000000
O    -1.918000000    -5.796000000     3.796000000
H    -1.250000000    -5.265000000     3.362000000
H    -2.337000000    -5.197000000     4.413000000
O     1.099000000    -4.377000000     5.166000000
H     0.753000000    -4.136000000     4.306000000
H     2.021000000    -4.577000000     5.006000000
O    -0.026000000    -9.024000000    -2.893000000
H    -0.063000000    -8.247000000    -2.337000000
H     0.482000000    -8.748000000    -3.657000000
O     2.236000000    -9.153000000     0.289000000
H     2.876000000    -9.409000000    -0.377000000
H     2.267000000    -8.197000000     0.296000000
O     3.105000000    -7.596000000     4.944000000
H     3.575000000    -6.783000000     5.131000000
H     2.359000000    -7.324000000     4.409000000
O     3.953000000    -5.015000000     5.281000000
H     4.491000000    -4.745000000     4.537000000
H     4.540000000    -4.955000000     6.035000000
O    -2.843000000    -7.554000000    -0.607000000
H    -3.195000000    -7.951000000     0.190000000
H    -3.379000000    -7.917000000    -1.312000000
