201
-1215.03505
C     5.280000000    -1.766000000    -0.393000000
H     5.302000000    -0.999000000     0.376000000
C     4.817000000    -1.442000000    -1.662000000
C     4.738000000    -2.392000000    -2.655000000
H     4.390000000    -2.128000000    -3.651000000
C     4.234000000    -0.025000000    -1.806000000
O     4.999000000     1.061000000    -1.149000000
H     3.225000000     0.040000000    -1.371000000
O     4.142000000     0.312000000    -3.206000000
C     3.003000000     0.826000000    -3.767000000
C     2.031000000    -0.034000000    -4.306000000
H     2.397000000    -1.051000000    -4.426000000
C     0.801000000     0.473000000    -4.712000000
O    -0.195000000    -0.445000000    -5.034000000
C     0.630000000     1.885000000    -4.554000000
C    -0.659000000     2.557000000    -4.823000000
H    -0.361000000     3.564000000    -5.124000000
C    -1.675000000     2.548000000    -3.633000000
C    -1.839000000     3.724000000    -2.848000000
H    -1.271000000     4.632000000    -3.032000000
H    -1.146000000     2.114000000    -5.694000000
C     1.583000000     2.706000000    -3.909000000
H     1.473000000     3.769000000    -3.708000000
C     2.793000000     2.151000000    -3.548000000
C     3.846000000     3.107000000    -2.828000000
H     3.734000000     4.111000000    -3.243000000
H     4.837000000     2.841000000    -3.201000000
C     3.720000000     3.112000000    -1.316000000
C     2.931000000     4.059000000    -0.712000000
H     2.395000000     4.786000000    -1.317000000
C     4.240000000     2.097000000    -0.562000000
C     3.918000000     1.933000000     0.774000000
H     4.290000000     1.094000000     1.357000000
C     3.200000000     2.883000000     1.439000000
O     2.690000000     2.577000000     2.627000000
C     1.298000000     2.181000000     2.795000000
C     1.179000000     0.971000000     3.669000000
C     0.449000000     1.008000000     4.845000000
H    -0.088000000     1.911000000     5.123000000
C     1.793000000    -0.142000000     3.235000000
H     2.410000000    -0.093000000     2.341000000
O     0.568000000     3.330000000     3.357000000
H     0.849000000     2.073000000     1.797000000
C     2.717000000     3.969000000     0.682000000
C     1.828000000     5.003000000     1.335000000
H     1.936000000     5.940000000     0.784000000
H     2.205000000     5.174000000     2.345000000
C     0.364000000     4.677000000     1.322000000
C    -0.518000000     5.131000000     0.325000000
H    -0.186000000     5.688000000    -0.547000000
C    -0.202000000     4.048000000     2.465000000
C    -1.513000000     3.860000000     2.571000000
H    -1.923000000     3.342000000     3.435000000
C    -2.344000000     4.131000000     1.461000000
O    -3.643000000     3.624000000     1.471000000
C    -3.763000000     2.280000000     0.793000000
C    -4.488000000     1.291000000     1.720000000
C    -4.410000000     1.398000000     3.100000000
H    -3.974000000     2.287000000     3.549000000
C    -4.908000000     0.121000000     1.127000000
H    -4.914000000     0.000000000     0.047000000
O    -4.445000000     2.482000000    -0.466000000
H    -2.802000000     1.824000000     0.510000000
C    -1.848000000     4.794000000     0.373000000
C    -2.736000000     4.914000000    -0.891000000
H    -2.375000000     5.760000000    -1.479000000
H    -3.758000000     5.114000000    -0.560000000
C    -2.758000000     3.706000000    -1.816000000
C    -3.628000000     2.641000000    -1.592000000
C    -3.459000000     1.496000000    -2.397000000
H    -4.077000000     0.621000000    -2.214000000
C    -2.505000000     1.444000000    -3.406000000
O    -2.414000000     0.242000000    -4.119000000
C    -1.201000000    -0.633000000    -3.949000000
H    -0.707000000    -0.364000000    -3.004000000
C    -1.600000000    -2.021000000    -3.610000000
C    -0.533000000    -2.942000000    -3.525000000
H     0.462000000    -2.559000000    -3.740000000
C    -2.902000000    -2.478000000    -3.329000000
H    -3.731000000    -1.774000000    -3.355000000
C    -3.205000000    -3.825000000    -2.973000000
O    -4.380000000    -4.282000000    -2.516000000
C    -2.064000000    -4.667000000    -2.875000000
H    -2.291000000    -5.682000000    -2.557000000
C    -0.734000000    -4.286000000    -3.142000000
O     0.333000000    -5.152000000    -3.011000000
C     1.392000000    -5.114000000    -3.841000000
C     2.639000000    -4.953000000    -3.234000000
H     2.813000000    -5.021000000    -2.163000000
C     1.291000000    -4.850000000    -5.212000000
H     0.306000000    -4.697000000    -5.644000000
C     2.420000000    -4.600000000    -5.995000000
H     2.255000000    -4.400000000    -7.050000000
C     3.655000000    -4.580000000    -5.340000000
H     4.519000000    -4.384000000    -5.970000000
C     3.743000000    -4.736000000    -3.975000000
O     4.959000000    -4.721000000    -3.313000000
C     5.145000000    -3.677000000    -2.339000000
C     5.643000000    -3.996000000    -1.086000000
H     5.760000000    -5.056000000    -0.879000000
C     5.742000000    -3.047000000    -0.103000000
O     6.260000000    -3.274000000     1.177000000
C     5.676000000    -2.850000000     2.354000000
C     4.265000000    -2.846000000     2.476000000
H     3.652000000    -3.160000000     1.635000000
C     6.451000000    -2.478000000     3.474000000
H     7.534000000    -2.395000000     3.424000000
C     5.799000000    -2.227000000     4.681000000
H     6.390000000    -2.012000000     5.568000000
C     4.392000000    -2.236000000     4.743000000
H     3.875000000    -2.009000000     5.672000000
C     3.613000000    -2.528000000     3.640000000
O     2.296000000    -2.511000000     3.585000000
C     1.636000000    -1.311000000     3.920000000
C     0.834000000    -1.343000000     5.053000000
H     0.748000000    -2.210000000     5.702000000
C     0.353000000    -0.202000000     5.568000000
O    -0.458000000    -0.323000000     6.691000000
C    -1.608000000     0.362000000     6.861000000
C    -2.656000000     0.043000000     5.982000000
H    -2.444000000    -0.699000000     5.216000000
C    -1.716000000     1.365000000     7.844000000
H    -0.912000000     1.605000000     8.535000000
C    -2.847000000     2.088000000     7.882000000
H    -2.939000000     2.953000000     8.535000000
C    -3.948000000     1.784000000     7.002000000
H    -4.809000000     2.447000000     6.963000000
C    -3.836000000     0.727000000     6.069000000
O    -4.881000000     0.475000000     5.252000000
C    -4.905000000     0.314000000     3.881000000
C    -5.542000000    -0.764000000     3.311000000
H    -6.032000000    -1.551000000     3.879000000
C    -5.528000000    -0.879000000     1.905000000
O    -5.883000000    -2.083000000     1.318000000
C    -6.061000000    -2.317000000     0.037000000
C    -7.232000000    -1.979000000    -0.527000000
H    -8.029000000    -1.464000000     0.003000000
C    -7.482000000    -2.384000000    -1.845000000
H    -8.468000000    -2.155000000    -2.240000000
C    -6.511000000    -3.180000000    -2.556000000
H    -6.693000000    -3.464000000    -3.589000000
C    -5.311000000    -3.492000000    -1.913000000
C    -5.028000000    -2.953000000    -0.682000000
H    -4.119000000    -3.243000000    -0.162000000
O     0.573000000    -7.097000000     6.882000000
H     1.315000000    -7.666000000     6.676000000
H     0.878000000    -6.561000000     7.614000000
O    -3.499000000    -4.917000000     1.494000000
H    -2.577000000    -4.911000000     1.751000000
H    -3.935000000    -4.379000000     2.154000000
O    -3.373000000    -4.978000000     7.716000000
H    -2.601000000    -4.946000000     7.152000000
H    -3.752000000    -4.101000000     7.654000000
O     1.287000000    -8.383000000     1.168000000
H     1.104000000    -8.120000000     2.070000000
H     0.737000000    -7.810000000     0.635000000
O    -1.579000000    -5.452000000     5.773000000
H    -1.236000000    -5.224000000     4.909000000
H    -0.859000000    -5.911000000     6.204000000
O     2.639000000    -5.087000000     4.883000000
H     2.349000000    -4.302000000     4.418000000
H     3.108000000    -5.598000000     4.223000000
O    -5.263000000    -6.961000000     0.905000000
H    -5.005000000    -7.573000000     1.595000000
H    -4.736000000    -6.179000000     1.068000000
O    -6.065000000    -4.080000000     4.705000000
H    -5.185000000    -3.956000000     4.349000000
H    -6.024000000    -4.922000000     5.158000000
O    -1.834000000    -7.349000000     2.762000000
H    -1.732000000    -6.427000000     3.000000000
H    -0.951000000    -7.712000000     2.827000000
O     3.929000000    -6.880000000     3.103000000
H     3.111000000    -7.322000000     3.333000000
H     4.567000000    -7.213000000     3.734000000
O    -4.292000000    -8.561000000     5.443000000
H    -4.119000000    -7.839000000     4.838000000
H    -3.805000000    -8.331000000     6.234000000
O     1.219000000    -7.298000000     3.710000000
H     1.262000000    -7.155000000     4.656000000
H     1.145000000    -6.419000000     3.338000000
O    -1.931000000    -7.374000000    -0.280000000
H    -2.335000000    -7.084000000     0.538000000
H    -1.089000000    -6.921000000    -0.306000000
O    -3.804000000    -8.834000000     2.134000000
H    -3.679000000    -9.158000000     1.241000000
H    -3.003000000    -8.345000000     2.325000000
O     0.459000000    -6.184000000     0.034000000
H     1.392000000    -6.371000000    -0.062000000
H     0.372000000    -5.855000000     0.929000000
O     3.264000000    -6.552000000    -0.474000000
H     3.462000000    -7.097000000    -1.235000000
H     4.121000000    -6.319000000    -0.117000000
O    -3.782000000    -3.298000000     3.619000000
H    -2.938000000    -3.715000000     3.792000000
H    -3.584000000    -2.363000000     3.577000000
O    -2.524000000    -8.484000000     7.418000000
H    -2.515000000    -8.580000000     8.371000000
H    -1.832000000    -7.848000000     7.236000000
O     3.959000000    -5.422000000     7.565000000
H     3.204000000    -5.331000000     8.147000000
H     3.593000000    -5.338000000     6.685000000
