201
-1219.89290
C     5.149000000    -1.276000000     0.027000000
H     4.953000000    -0.412000000     0.657000000
C     4.656000000    -1.378000000    -1.261000000
C     4.779000000    -2.628000000    -1.872000000
H     4.210000000    -2.690000000    -2.797000000
C     3.927000000    -0.246000000    -2.015000000
O     4.497000000     1.002000000    -1.722000000
H     2.945000000    -0.243000000    -1.521000000
O     3.800000000    -0.382000000    -3.496000000
C     2.665000000     0.071000000    -4.127000000
C     1.684000000    -0.801000000    -4.389000000
H     1.873000000    -1.829000000    -4.090000000
C     0.425000000    -0.388000000    -4.734000000
O    -0.487000000    -1.372000000    -4.702000000
C     0.091000000     0.921000000    -4.808000000
C    -1.289000000     1.476000000    -5.245000000
H    -1.071000000     2.465000000    -5.655000000
C    -2.290000000     1.621000000    -4.101000000
C    -2.512000000     2.842000000    -3.450000000
H    -1.913000000     3.700000000    -3.745000000
H    -1.677000000     0.901000000    -6.088000000
C     1.060000000     1.838000000    -4.568000000
H     0.859000000     2.905000000    -4.620000000
C     2.353000000     1.452000000    -4.188000000
C     3.316000000     2.540000000    -3.796000000
H     3.159000000     3.387000000    -4.467000000
H     4.379000000     2.298000000    -3.850000000
C     3.126000000     2.856000000    -2.306000000
C     2.368000000     3.913000000    -1.832000000
H     1.784000000     4.479000000    -2.554000000
C     3.730000000     2.060000000    -1.344000000
C     3.596000000     2.287000000    -0.018000000
H     4.233000000     1.692000000     0.631000000
C     2.804000000     3.323000000     0.414000000
O     2.632000000     3.415000000     1.769000000
C     1.410000000     3.097000000     2.462000000
C     1.695000000     2.422000000     3.875000000
C     0.691000000     2.222000000     4.784000000
H    -0.226000000     2.707000000     4.459000000
C     2.894000000     1.699000000     4.097000000
H     3.674000000     1.625000000     3.343000000
O     0.543000000     4.277000000     2.531000000
H     0.903000000     2.309000000     1.887000000
C     2.180000000     4.174000000    -0.507000000
C     1.276000000     5.349000000    -0.102000000
H     1.132000000     6.187000000    -0.787000000
H     1.668000000     5.751000000     0.834000000
C    -0.157000000     4.907000000     0.274000000
C    -1.154000000     4.842000000    -0.684000000
H    -0.810000000     4.979000000    -1.706000000
C    -0.436000000     4.445000000     1.541000000
C    -1.752000000     3.938000000     1.808000000
H    -1.904000000     3.514000000     2.798000000
C    -2.735000000     3.909000000     0.865000000
O    -3.854000000     3.067000000     1.098000000
C    -3.957000000     1.732000000     0.501000000
C    -4.524000000     0.835000000     1.613000000
C    -4.700000000     1.159000000     2.985000000
H    -4.557000000     2.172000000     3.351000000
C    -4.890000000    -0.431000000     1.174000000
H    -4.850000000    -0.639000000     0.108000000
O    -4.715000000     1.792000000    -0.717000000
H    -2.961000000     1.294000000     0.339000000
C    -2.428000000     4.310000000    -0.412000000
C    -3.400000000     4.245000000    -1.560000000
H    -3.164000000     5.005000000    -2.307000000
H    -4.437000000     4.352000000    -1.235000000
C    -3.281000000     2.908000000    -2.281000000
C    -3.953000000     1.754000000    -1.849000000
C    -3.813000000     0.571000000    -2.519000000
H    -4.352000000    -0.314000000    -2.189000000
C    -3.003000000     0.457000000    -3.630000000
O    -2.719000000    -0.773000000    -4.103000000
C    -1.473000000    -1.433000000    -3.701000000
H    -1.109000000    -0.797000000    -2.880000000
C    -1.639000000    -2.856000000    -3.223000000
C    -0.482000000    -3.519000000    -2.897000000
H     0.532000000    -3.178000000    -3.087000000
C    -2.879000000    -3.407000000    -2.959000000
H    -3.829000000    -2.910000000    -3.138000000
C    -2.947000000    -4.676000000    -2.408000000
O    -4.169000000    -5.172000000    -1.822000000
C    -1.746000000    -5.348000000    -2.057000000
H    -1.817000000    -6.263000000    -1.475000000
C    -0.552000000    -4.801000000    -2.313000000
O     0.616000000    -5.325000000    -1.829000000
C     1.809000000    -5.401000000    -2.533000000
C     3.037000000    -5.133000000    -1.884000000
H     3.085000000    -4.791000000    -0.853000000
C     1.797000000    -5.916000000    -3.813000000
H     0.866000000    -6.344000000    -4.174000000
C     2.978000000    -6.012000000    -4.499000000
H     2.959000000    -6.535000000    -5.453000000
C     4.183000000    -5.748000000    -3.878000000
H     5.121000000    -5.835000000    -4.420000000
C     4.235000000    -5.280000000    -2.553000000
O     5.362000000    -4.947000000    -1.850000000
C     5.396000000    -3.716000000    -1.282000000
C     5.960000000    -3.594000000    -0.014000000
H     6.480000000    -4.402000000     0.493000000
C     5.869000000    -2.338000000     0.609000000
O     6.470000000    -2.135000000     1.812000000
C     6.246000000    -1.078000000     2.645000000
C     5.262000000    -1.131000000     3.603000000
H     4.601000000    -1.993000000     3.553000000
C     7.055000000    -0.004000000     2.501000000
H     7.846000000    -0.002000000     1.755000000
C     6.937000000     0.991000000     3.412000000
H     7.520000000     1.899000000     3.284000000
C     6.041000000     0.911000000     4.471000000
H     5.967000000     1.740000000     5.170000000
C     5.121000000    -0.138000000     4.545000000
O     4.077000000    -0.018000000     5.448000000
C     2.993000000     0.844000000     5.217000000
C     1.957000000     0.715000000     6.107000000
H     2.032000000     0.085000000     6.989000000
C     0.755000000     1.331000000     5.853000000
O    -0.343000000     0.833000000     6.594000000
C    -1.635000000     1.395000000     6.450000000
C    -2.657000000     0.589000000     5.995000000
H    -2.573000000    -0.437000000     5.646000000
C    -1.845000000     2.700000000     6.910000000
H    -1.056000000     3.302000000     7.353000000
C    -3.176000000     3.193000000     6.827000000
H    -3.345000000     4.243000000     7.049000000
C    -4.220000000     2.387000000     6.360000000
H    -5.223000000     2.779000000     6.212000000
C    -3.949000000     1.082000000     5.902000000
O    -4.914000000     0.348000000     5.222000000
C    -4.995000000     0.164000000     3.852000000
C    -5.474000000    -1.052000000     3.366000000
H    -5.845000000    -1.751000000     4.111000000
C    -5.485000000    -1.399000000     2.050000000
O    -5.972000000    -2.596000000     1.751000000
C    -6.144000000    -3.095000000     0.488000000
C    -7.374000000    -3.131000000    -0.110000000
H    -8.234000000    -2.680000000     0.379000000
C    -7.500000000    -3.739000000    -1.351000000
H    -8.454000000    -3.814000000    -1.868000000
C    -6.419000000    -4.403000000    -1.976000000
H    -6.495000000    -4.872000000    -2.953000000
C    -5.239000000    -4.458000000    -1.294000000
C    -5.091000000    -3.793000000    -0.077000000
H    -4.081000000    -3.839000000     0.321000000
O    -2.332000000    -5.490000000     2.544000000
H    -1.921000000    -4.743000000     2.979000000
H    -1.606000000    -5.948000000     2.119000000
O     4.326000000    -4.172000000     5.530000000
H     4.945000000    -4.311000000     6.247000000
H     3.639000000    -3.624000000     5.910000000
O     2.374000000    -2.443000000     5.964000000
H     2.630000000    -1.560000000     5.695000000
H     1.915000000    -2.801000000     5.204000000
O     2.513000000    -4.934000000     3.510000000
H     3.153000000    -4.843000000     4.215000000
H     1.903000000    -4.209000000     3.646000000
O    -4.948000000    -2.014000000     7.165000000
H    -5.377000000    -1.521000000     6.466000000
H    -4.123000000    -2.308000000     6.780000000
O     1.744000000    -7.920000000     4.058000000
H     2.047000000    -7.138000000     3.596000000
H     0.813000000    -7.978000000     3.843000000
O    -3.382000000    -5.983000000     5.199000000
H    -3.662000000    -5.081000000     5.357000000
H    -2.927000000    -5.948000000     4.357000000
O     3.353000000    -6.590000000     1.599000000
H     4.245000000    -6.332000000     1.367000000
H     3.052000000    -5.903000000     2.194000000
O     0.447000000    -4.692000000     8.771000000
H     0.605000000    -5.068000000     7.905000000
H    -0.095000000    -3.921000000     8.601000000
O     2.949000000    -1.873000000     8.671000000
H     2.989000000    -2.257000000     7.795000000
H     3.682000000    -2.272000000     9.141000000
O    -3.194000000    -8.463000000     3.358000000
H    -2.265000000    -8.636000000     3.206000000
H    -3.582000000    -8.449000000     2.483000000
O    -0.112000000    -7.552000000     0.196000000
H     0.378000000    -7.081000000    -0.477000000
H    -0.282000000    -8.412000000    -0.188000000
O    -2.604000000    -2.957000000     6.376000000
H    -2.165000000    -2.998000000     5.526000000
H    -1.891000000    -2.966000000     7.015000000
O    -3.613000000    -4.829000000     9.172000000
H    -3.011000000    -5.022000000     8.453000000
H    -3.110000000    -5.024000000     9.964000000
O    -1.136000000    -2.167000000     8.713000000
H    -0.452000000    -1.847000000     9.302000000
H    -1.918000000    -1.674000000     8.964000000
O     2.046000000    -7.634000000     6.707000000
H     1.189000000    -8.015000000     6.899000000
H     2.096000000    -7.626000000     5.751000000
O    -4.861000000    -6.124000000     2.264000000
H    -4.910000000    -6.633000000     1.455000000
H    -3.958000000    -5.807000000     2.293000000
O     0.537000000    -5.207000000     6.016000000
H     0.285000000    -4.459000000     5.476000000
H     1.319000000    -5.558000000     5.589000000
O    -1.618000000    -6.634000000     7.513000000
H    -2.194000000    -6.517000000     6.757000000
H    -0.751000000    -6.385000000     7.194000000
