201
-1226.85975
C    -3.997000000    -1.750000000    -1.710000000
H    -3.591000000    -0.871000000    -2.204000000
C    -4.227000000    -1.631000000    -0.338000000
C    -4.453000000    -2.786000000     0.408000000
H    -4.656000000    -2.794000000     1.476000000
C    -3.953000000    -0.283000000     0.329000000
O    -4.531000000     0.731000000    -0.470000000
H    -2.881000000    -0.075000000     0.460000000
O    -4.525000000    -0.280000000     1.664000000
C    -3.861000000     0.214000000     2.712000000
C    -3.254000000    -0.612000000     3.575000000
H    -3.414000000    -1.665000000     3.356000000
C    -2.257000000    -0.129000000     4.337000000
O    -1.381000000    -1.020000000     4.918000000
C    -1.972000000     1.244000000     4.461000000
C    -0.829000000     1.842000000     5.301000000
H    -1.169000000     2.810000000     5.675000000
C     0.427000000     1.895000000     4.409000000
C     0.747000000     3.077000000     3.681000000
H     0.050000000     3.910000000     3.737000000
H    -0.475000000     1.200000000     6.110000000
C    -2.753000000     2.142000000     3.667000000
H    -2.540000000     3.204000000     3.577000000
C    -3.709000000     1.612000000     2.780000000
C    -4.407000000     2.585000000     1.815000000
H    -4.602000000     3.470000000     2.423000000
H    -5.400000000     2.163000000     1.648000000
C    -3.707000000     2.820000000     0.473000000
C    -2.926000000     3.957000000     0.241000000
H    -2.774000000     4.673000000     1.045000000
C    -3.917000000     1.962000000    -0.614000000
C    -3.385000000     2.288000000    -1.890000000
H    -3.625000000     1.658000000    -2.743000000
C    -2.548000000     3.398000000    -2.053000000
O    -1.861000000     3.582000000    -3.256000000
C    -0.491000000     3.126000000    -3.213000000
C    -0.143000000     2.365000000    -4.474000000
C     1.176000000     2.121000000    -4.900000000
H     1.967000000     2.721000000    -4.457000000
C    -1.196000000     1.622000000    -5.058000000
H    -2.200000000     1.571000000    -4.643000000
O     0.349000000     4.296000000    -3.058000000
H    -0.291000000     2.402000000    -2.409000000
C    -2.323000000     4.248000000    -0.936000000
C    -1.373000000     5.445000000    -1.039000000
H    -1.754000000     6.186000000    -0.332000000
H    -1.621000000     5.955000000    -1.972000000
C     0.104000000     5.110000000    -0.826000000
C     0.472000000     5.072000000     0.493000000
H    -0.197000000     5.506000000     1.232000000
C     0.887000000     4.552000000    -1.797000000
C     2.001000000     3.787000000    -1.437000000
H     2.734000000     3.325000000    -2.093000000
C     2.397000000     3.752000000    -0.149000000
O     3.623000000     3.133000000     0.014000000
C     3.725000000     1.844000000     0.632000000
C     4.765000000     0.847000000    -0.044000000
C     5.202000000     1.081000000    -1.349000000
H     4.935000000     2.011000000    -1.845000000
C     4.891000000    -0.445000000     0.447000000
H     4.371000000    -0.597000000     1.389000000
O     3.972000000     1.902000000     2.070000000
H     2.750000000     1.349000000     0.508000000
C     1.699000000     4.399000000     0.847000000
C     2.310000000     4.375000000     2.219000000
H     1.911000000     5.177000000     2.843000000
H     3.375000000     4.608000000     2.157000000
C     1.959000000     3.058000000     2.900000000
C     2.827000000     1.991000000     2.909000000
C     2.465000000     0.836000000     3.608000000
H     3.155000000     0.006000000     3.734000000
C     1.221000000     0.769000000     4.234000000
O     0.936000000    -0.490000000     4.780000000
C    -0.167000000    -1.162000000     4.124000000
H    -0.327000000    -0.735000000     3.123000000
C     0.193000000    -2.658000000     3.803000000
C    -0.796000000    -3.725000000     3.825000000
H    -1.856000000    -3.497000000     3.893000000
C     1.523000000    -3.029000000     3.761000000
H     2.278000000    -2.249000000     3.803000000
C     1.927000000    -4.345000000     3.588000000
O     3.225000000    -4.741000000     3.691000000
C     1.028000000    -5.354000000     3.524000000
H     1.279000000    -6.392000000     3.324000000
C    -0.331000000    -5.040000000     3.689000000
O    -1.267000000    -6.080000000     3.665000000
C    -2.588000000    -5.860000000     3.452000000
C    -2.975000000    -5.575000000     2.128000000
H    -2.251000000    -5.642000000     1.319000000
C    -3.514000000    -5.824000000     4.474000000
H    -3.275000000    -6.048000000     5.510000000
C    -4.843000000    -5.561000000     4.162000000
H    -5.624000000    -5.692000000     4.907000000
C    -5.228000000    -5.295000000     2.839000000
H    -6.247000000    -5.142000000     2.495000000
C    -4.344000000    -5.401000000     1.808000000
O    -4.759000000    -5.162000000     0.513000000
C    -4.447000000    -3.999000000    -0.164000000
C    -4.153000000    -4.154000000    -1.526000000
H    -4.089000000    -5.154000000    -1.948000000
C    -4.021000000    -3.002000000    -2.265000000
O    -3.756000000    -3.120000000    -3.538000000
C    -3.870000000    -2.071000000    -4.393000000
C    -2.777000000    -1.722000000    -5.203000000
H    -1.826000000    -2.243000000    -5.130000000
C    -5.119000000    -1.395000000    -4.539000000
H    -5.939000000    -1.638000000    -3.869000000
C    -5.275000000    -0.428000000    -5.534000000
H    -6.259000000    -0.002000000    -5.714000000
C    -4.177000000     0.026000000    -6.268000000
H    -4.372000000     0.807000000    -6.999000000
C    -2.944000000    -0.546000000    -6.035000000
O    -1.861000000    -0.130000000    -6.724000000
C    -0.933000000     0.722000000    -6.125000000
C     0.367000000     0.626000000    -6.619000000
H     0.458000000    -0.039000000    -7.474000000
C     1.437000000     1.291000000    -6.014000000
O     2.756000000     1.234000000    -6.436000000
C     3.853000000     1.693000000    -5.775000000
C     4.483000000     0.865000000    -4.974000000
H     4.133000000    -0.155000000    -4.843000000
C     4.193000000     3.035000000    -5.870000000
H     3.731000000     3.642000000    -6.645000000
C     5.185000000     3.503000000    -5.061000000
H     5.589000000     4.509000000    -5.134000000
C     5.876000000     2.613000000    -4.200000000
H     6.689000000     2.978000000    -3.579000000
C     5.553000000     1.246000000    -4.218000000
O     6.252000000     0.390000000    -3.441000000
C     5.866000000     0.119000000    -2.114000000
C     6.047000000    -1.152000000    -1.588000000
H     6.227000000    -1.941000000    -2.313000000
C     5.550000000    -1.465000000    -0.267000000
O     5.633000000    -2.738000000     0.263000000
C     5.574000000    -2.944000000     1.609000000
C     6.637000000    -2.719000000     2.501000000
H     7.578000000    -2.264000000     2.204000000
C     6.509000000    -3.246000000     3.823000000
H     7.332000000    -3.070000000     4.511000000
C     5.314000000    -3.837000000     4.266000000
H     5.279000000    -4.283000000     5.257000000
C     4.286000000    -3.971000000     3.356000000
C     4.441000000    -3.558000000     2.030000000
H     3.645000000    -3.702000000     1.304000000
O    -0.675000000    -9.946000000     3.987000000
H    -0.298000000    -9.251000000     3.447000000
H    -1.574000000   -10.034000000     3.671000000
O    -1.388000000    -6.857000000    -1.473000000
H    -0.977000000    -6.735000000    -0.617000000
H    -2.292000000    -7.100000000    -1.272000000
O    -1.056000000    -7.897000000    -4.088000000
H    -1.282000000    -7.749000000    -3.169000000
H    -0.991000000    -7.019000000    -4.463000000
O     4.004000000    -7.419000000    -3.603000000
H     4.451000000    -8.141000000    -4.045000000
H     3.738000000    -7.782000000    -2.758000000
O     0.677000000    -8.624000000     1.405000000
H     0.355000000    -7.726000000     1.329000000
H     1.341000000    -8.699000000     0.720000000
O     3.626000000    -7.075000000     1.582000000
H     3.304000000    -6.520000000     0.871000000
H     3.680000000    -7.950000000     1.197000000
O    -1.346000000   -10.583000000     0.763000000
H    -0.595000000   -10.032000000     0.985000000
H    -2.104000000   -10.006000000     0.862000000
O     2.978000000    -4.097000000    -4.262000000
H     2.560000000    -4.170000000    -3.404000000
H     2.682000000    -4.873000000    -4.739000000
O     0.053000000    -4.440000000    -2.895000000
H     0.082000000    -3.738000000    -2.245000000
H    -0.376000000    -5.167000000    -2.444000000
O     6.688000000    -5.510000000    -0.489000000
H     5.933000000    -5.254000000    -1.020000000
H     6.376000000    -5.451000000     0.414000000
O     3.565000000    -9.287000000     0.206000000
H     3.441000000    -9.394000000    -0.737000000
H     3.243000000   -10.105000000     0.585000000
O    -1.998000000    -5.062000000    -4.593000000
H    -1.181000000    -4.746000000    -4.207000000
H    -2.674000000    -4.496000000    -4.220000000
O    -0.110000000    -7.300000000     6.020000000
H    -0.617000000    -7.259000000     5.209000000
H     0.793000000    -7.431000000     5.731000000
O     6.378000000    -4.644000000    -4.063000000
H     5.737000000    -4.882000000    -3.393000000
H     6.083000000    -3.792000000    -4.386000000
O     2.639000000    -9.967000000    -2.438000000
H     1.957000000    -9.313000000    -2.283000000
H     2.498000000   -10.250000000    -3.342000000
O     1.238000000    -7.644000000    -1.888000000
H     0.287000000    -7.540000000    -1.872000000
H     1.566000000    -6.931000000    -1.340000000
O     6.292000000    -7.146000000     2.348000000
H     6.394000000    -8.085000000     2.508000000
H     5.348000000    -6.997000000     2.386000000
O     3.094000000    -8.108000000     4.584000000
H     3.703000000    -8.715000000     4.165000000
H     2.982000000    -7.403000000     3.946000000
O     4.533000000    -5.315000000    -2.012000000
H     3.972000000    -5.428000000    -1.245000000
H     4.323000000    -6.060000000    -2.575000000
