201
-1233.38656
C     5.043000000    -1.624000000     1.031000000
H     5.541000000    -0.751000000     1.448000000
C     4.400000000    -1.797000000    -0.193000000
C     3.588000000    -2.985000000    -0.338000000
H     2.952000000    -3.109000000    -1.210000000
C     4.157000000    -0.639000000    -1.182000000
O     5.139000000     0.407000000    -0.983000000
H     3.134000000    -0.274000000    -1.009000000
O     4.277000000    -1.091000000    -2.566000000
C     3.200000000    -0.658000000    -3.368000000
C     2.162000000    -1.576000000    -3.512000000
H     2.297000000    -2.597000000    -3.166000000
C     0.979000000    -1.177000000    -4.122000000
O    -0.096000000    -2.039000000    -4.120000000
C     0.881000000     0.176000000    -4.665000000
C    -0.339000000     0.618000000    -5.435000000
H    -0.035000000     1.440000000    -6.087000000
C    -1.496000000     1.087000000    -4.617000000
C    -1.636000000     2.427000000    -4.157000000
H    -0.958000000     3.239000000    -4.409000000
H    -0.687000000    -0.201000000    -6.068000000
C     2.044000000     0.993000000    -4.618000000
H     2.086000000     1.982000000    -5.067000000
C     3.118000000     0.665000000    -3.774000000
C     4.246000000     1.669000000    -3.514000000
H     4.286000000     2.394000000    -4.329000000
H     5.198000000     1.134000000    -3.532000000
C     4.057000000     2.290000000    -2.159000000
C     3.353000000     3.535000000    -2.027000000
H     2.917000000     4.078000000    -2.862000000
C     4.585000000     1.671000000    -0.963000000
C     4.327000000     2.315000000     0.263000000
H     4.868000000     1.990000000     1.148000000
C     3.503000000     3.388000000     0.359000000
O     3.032000000     3.772000000     1.586000000
C     1.657000000     3.350000000     2.013000000
C     1.630000000     2.740000000     3.423000000
C     0.424000000     2.497000000     4.126000000
H    -0.541000000     2.759000000     3.700000000
C     2.846000000     2.326000000     4.036000000
H     3.813000000     2.516000000     3.578000000
O     0.768000000     4.504000000     1.929000000
H     1.318000000     2.538000000     1.353000000
C     2.968000000     3.958000000    -0.786000000
C     2.015000000     5.172000000    -0.607000000
H     2.112000000     5.813000000    -1.485000000
H     2.302000000     5.820000000     0.224000000
C     0.617000000     4.679000000    -0.527000000
C    -0.175000000     4.587000000    -1.659000000
H     0.240000000     4.826000000    -2.635000000
C     0.088000000     4.471000000     0.785000000
C    -1.241000000     4.082000000     0.921000000
H    -1.562000000     3.828000000     1.928000000
C    -1.934000000     3.809000000    -0.210000000
O    -3.269000000     3.387000000     0.039000000
C    -3.704000000     2.069000000    -0.437000000
C    -4.636000000     1.390000000     0.594000000
C    -4.322000000     1.466000000     1.982000000
H    -3.564000000     2.165000000     2.326000000
C    -5.668000000     0.524000000     0.165000000
H    -5.854000000     0.390000000    -0.897000000
O    -4.294000000     2.131000000    -1.738000000
H    -2.817000000     1.429000000    -0.548000000
C    -1.496000000     4.192000000    -1.506000000
C    -2.480000000     4.243000000    -2.674000000
H    -2.056000000     4.918000000    -3.420000000
H    -3.482000000     4.578000000    -2.400000000
C    -2.604000000     2.819000000    -3.274000000
C    -3.498000000     1.857000000    -2.801000000
C    -3.412000000     0.543000000    -3.267000000
H    -4.068000000    -0.209000000    -2.835000000
C    -2.353000000     0.152000000    -4.086000000
O    -2.157000000    -1.241000000    -4.286000000
C    -1.262000000    -1.824000000    -3.374000000
H    -1.044000000    -1.156000000    -2.528000000
C    -1.771000000    -3.185000000    -2.874000000
C    -0.955000000    -4.294000000    -2.743000000
H     0.035000000    -4.232000000    -3.189000000
C    -3.133000000    -3.292000000    -2.465000000
H    -3.780000000    -2.419000000    -2.454000000
C    -3.572000000    -4.474000000    -1.847000000
O    -4.878000000    -4.665000000    -1.236000000
C    -2.719000000    -5.516000000    -1.785000000
H    -3.119000000    -6.461000000    -1.427000000
C    -1.415000000    -5.445000000    -2.234000000
O    -0.642000000    -6.556000000    -2.203000000
C     0.684000000    -6.524000000    -1.833000000
C     1.154000000    -5.676000000    -0.820000000
H     0.513000000    -5.099000000    -0.158000000
C     1.552000000    -7.309000000    -2.610000000
H     1.157000000    -7.979000000    -3.370000000
C     2.890000000    -7.247000000    -2.393000000
H     3.570000000    -7.922000000    -2.905000000
C     3.331000000    -6.566000000    -1.259000000
H     4.374000000    -6.470000000    -0.968000000
C     2.539000000    -5.774000000    -0.469000000
O     3.038000000    -5.168000000     0.695000000
C     3.651000000    -3.974000000     0.706000000
C     4.412000000    -3.737000000     1.829000000
H     4.622000000    -4.572000000     2.494000000
C     5.036000000    -2.549000000     2.038000000
O     5.616000000    -2.304000000     3.259000000
C     5.831000000    -1.089000000     3.829000000
C     4.792000000    -0.527000000     4.593000000
H     3.813000000    -0.987000000     4.704000000
C     7.010000000    -0.466000000     3.608000000
H     7.656000000    -0.976000000     2.898000000
C     7.185000000     0.759000000     4.203000000
H     8.085000000     1.329000000     3.985000000
C     6.226000000     1.302000000     5.074000000
H     6.225000000     2.332000000     5.420000000
C     5.045000000     0.620000000     5.323000000
O     3.995000000     1.221000000     5.922000000
C     2.859000000     1.690000000     5.239000000
C     1.683000000     1.437000000     5.881000000
H     1.697000000     0.902000000     6.827000000
C     0.446000000     1.765000000     5.327000000
O    -0.630000000     1.426000000     6.145000000
C    -1.842000000     1.963000000     5.891000000
C    -2.796000000     1.073000000     5.295000000
H    -2.503000000     0.050000000     5.073000000
C    -2.135000000     3.278000000     6.235000000
H    -1.329000000     3.912000000     6.596000000
C    -3.367000000     3.787000000     5.804000000
H    -3.406000000     4.869000000     5.906000000
C    -4.261000000     2.933000000     5.100000000
H    -5.121000000     3.431000000     4.661000000
C    -4.035000000     1.574000000     4.981000000
O    -4.956000000     0.818000000     4.273000000
C    -5.127000000     0.748000000     2.844000000
C    -6.230000000     0.000000000     2.464000000
H    -6.749000000    -0.471000000     3.295000000
C    -6.506000000    -0.127000000     1.110000000
O    -7.471000000    -0.989000000     0.693000000
C    -7.162000000    -1.853000000    -0.339000000
C    -7.752000000    -1.634000000    -1.576000000
H    -8.370000000    -0.769000000    -1.801000000
C    -7.481000000    -2.571000000    -2.622000000
H    -8.008000000    -2.576000000    -3.572000000
C    -6.627000000    -3.648000000    -2.382000000
H    -6.544000000    -4.444000000    -3.117000000
C    -5.866000000    -3.725000000    -1.216000000
C    -6.190000000    -2.861000000    -0.131000000
H    -5.650000000    -2.947000000     0.808000000
O    -7.365000000    -1.652000000     5.230000000
H    -7.232000000    -1.002000000     5.920000000
H    -6.543000000    -2.139000000     5.198000000
O    -3.899000000    -6.256000000     7.138000000
H    -3.475000000    -5.448000000     6.851000000
H    -3.884000000    -6.207000000     8.094000000
O    -2.303000000    -6.277000000     2.770000000
H    -1.463000000    -6.351000000     2.317000000
H    -2.519000000    -5.346000000     2.725000000
O    -2.902000000    -7.820000000     4.728000000
H    -2.882000000    -7.281000000     5.519000000
H    -2.633000000    -7.227000000     4.027000000
O    -0.497000000    -1.369000000     8.422000000
H     0.275000000    -1.732000000     8.856000000
H    -0.353000000    -1.545000000     7.492000000
O    -5.679000000    -7.959000000     3.313000000
H    -4.861000000    -8.269000000     3.700000000
H    -5.405000000    -7.427000000     2.566000000
O     0.535000000    -6.907000000     1.977000000
H     1.220000000    -7.553000000     1.805000000
H     0.954000000    -6.258000000     2.543000000
O    -2.807000000    -0.602000000     9.627000000
H    -2.008000000    -0.697000000     9.109000000
H    -2.554000000    -0.876000000    10.509000000
O    -6.281000000    -6.551000000     5.933000000
H    -5.377000000    -6.557000000     6.247000000
H    -6.208000000    -6.677000000     4.987000000
O    -5.052000000    -6.936000000     0.758000000
H    -4.388000000    -6.354000000     0.390000000
H    -5.183000000    -7.605000000     0.086000000
O    -2.414000000    -4.049000000     6.826000000
H    -1.596000000    -3.884000000     7.294000000
H    -2.210000000    -3.853000000     5.912000000
O     0.917000000    -6.508000000     5.959000000
H     0.394000000    -5.816000000     6.364000000
H     1.262000000    -6.112000000     5.159000000
O    -4.943000000    -2.442000000     8.526000000
H    -4.078000000    -2.236000000     8.879000000
H    -4.860000000    -2.289000000     7.584000000
O     0.474000000    -2.780000000     5.862000000
H    -0.176000000    -3.197000000     5.296000000
H     1.057000000    -2.321000000     5.258000000
O     1.667000000    -4.823000000     3.664000000
H     0.845000000    -4.337000000     3.596000000
H     2.331000000    -4.221000000     3.329000000
O    -5.292000000    -4.719000000     2.859000000
H    -4.415000000    -4.389000000     3.055000000
H    -5.157000000    -5.356000000     2.157000000
O    -1.114000000   -10.006000000     5.219000000
H    -1.190000000    -9.833000000     6.158000000
H    -1.333000000    -9.172000000     4.804000000
O    -4.724000000    -2.319000000     4.735000000
H    -4.670000000    -3.015000000     4.080000000
H    -4.334000000    -1.557000000     4.306000000
O    -1.245000000    -8.695000000     0.261000000
H    -0.625000000    -8.050000000     0.602000000
H    -2.068000000    -8.496000000     0.708000000
