201
-1232.25940
C     3.893000000    -2.944000000    -0.140000000
H     4.285000000    -2.047000000     0.333000000
C     3.207000000    -2.827000000    -1.387000000
C     2.521000000    -3.989000000    -1.836000000
H     1.964000000    -3.918000000    -2.767000000
C     3.219000000    -1.502000000    -2.150000000
O     4.399000000    -0.771000000    -1.748000000
H     2.313000000    -0.996000000    -1.786000000
O     3.082000000    -1.576000000    -3.587000000
C     2.203000000    -0.782000000    -4.183000000
C     0.935000000    -1.281000000    -4.401000000
H     0.773000000    -2.348000000    -4.274000000
C    -0.137000000    -0.431000000    -4.714000000
O    -1.420000000    -0.989000000    -4.625000000
C     0.070000000     0.960000000    -4.865000000
C    -1.085000000     1.964000000    -4.998000000
H    -0.649000000     2.857000000    -5.449000000
C    -1.711000000     2.302000000    -3.678000000
C    -1.326000000     3.404000000    -2.953000000
H    -0.469000000     3.999000000    -3.261000000
H    -1.759000000     1.496000000    -5.718000000
C     1.341000000     1.465000000    -4.658000000
H     1.456000000     2.546000000    -4.656000000
C     2.411000000     0.630000000    -4.323000000
C     3.764000000     1.192000000    -3.882000000
H     4.078000000     2.053000000    -4.476000000
H     4.590000000     0.492000000    -4.021000000
C     3.821000000     1.569000000    -2.397000000
C     3.579000000     2.837000000    -2.003000000
H     3.274000000     3.574000000    -2.741000000
C     4.231000000     0.608000000    -1.480000000
C     4.391000000     1.008000000    -0.171000000
H     4.722000000     0.378000000     0.651000000
C     4.081000000     2.252000000     0.259000000
O     4.121000000     2.619000000     1.603000000
C     2.943000000     2.427000000     2.305000000
C     3.044000000     1.678000000     3.607000000
C     2.156000000     1.753000000     4.641000000
H     1.290000000     2.394000000     4.499000000
C     4.242000000     0.961000000     3.781000000
H     5.128000000     0.893000000     3.154000000
O     2.453000000     3.818000000     2.560000000
H     2.165000000     1.882000000     1.750000000
C     3.716000000     3.208000000    -0.655000000
C     3.240000000     4.617000000    -0.176000000
H     3.180000000     5.368000000    -0.967000000
H     3.919000000     4.992000000     0.593000000
C     1.808000000     4.547000000     0.317000000
C     0.799000000     4.802000000    -0.639000000
H     1.134000000     5.000000000    -1.654000000
C     1.469000000     4.175000000     1.641000000
C     0.090000000     4.031000000     1.946000000
H    -0.235000000     3.593000000     2.886000000
C    -0.924000000     4.319000000     1.001000000
O    -2.210000000     4.130000000     1.323000000
C    -2.842000000     2.841000000     0.963000000
C    -3.670000000     2.189000000     2.034000000
C    -3.117000000     2.010000000     3.227000000
H    -2.097000000     2.332000000     3.418000000
C    -4.928000000     1.586000000     1.683000000
H    -5.454000000     1.666000000     0.735000000
O    -3.642000000     3.223000000    -0.186000000
H    -2.024000000     2.141000000     0.738000000
C    -0.602000000     4.714000000    -0.318000000
C    -1.696000000     5.130000000    -1.294000000
H    -1.336000000     5.705000000    -2.149000000
H    -2.553000000     5.556000000    -0.767000000
C    -2.062000000     3.829000000    -1.907000000
C    -3.054000000     2.962000000    -1.386000000
C    -3.556000000     1.904000000    -2.102000000
H    -4.271000000     1.233000000    -1.633000000
C    -2.932000000     1.621000000    -3.324000000
O    -3.224000000     0.336000000    -3.916000000
C    -2.310000000    -0.729000000    -3.627000000
H    -1.816000000    -0.474000000    -2.678000000
C    -3.154000000    -1.875000000    -3.118000000
C    -2.543000000    -3.147000000    -3.274000000
H    -1.639000000    -3.229000000    -3.872000000
C    -4.398000000    -1.821000000    -2.466000000
H    -4.827000000    -0.827000000    -2.367000000
C    -4.981000000    -2.971000000    -1.996000000
O    -6.246000000    -2.998000000    -1.363000000
C    -4.395000000    -4.233000000    -2.178000000
H    -4.835000000    -5.143000000    -1.780000000
C    -3.198000000    -4.322000000    -2.860000000
O    -2.696000000    -5.598000000    -3.046000000
C    -1.367000000    -5.883000000    -3.322000000
C    -0.393000000    -5.869000000    -2.332000000
H    -0.683000000    -5.664000000    -1.304000000
C    -1.040000000    -6.065000000    -4.706000000
H    -1.890000000    -6.045000000    -5.383000000
C     0.243000000    -6.423000000    -5.038000000
H     0.534000000    -6.631000000    -6.065000000
C     1.187000000    -6.472000000    -4.021000000
H     2.242000000    -6.626000000    -4.230000000
C     0.880000000    -6.230000000    -2.660000000
O     1.849000000    -6.222000000    -1.722000000
C     2.527000000    -5.161000000    -1.171000000
C     3.352000000    -5.310000000    -0.106000000
H     3.282000000    -6.201000000     0.512000000
C     4.029000000    -4.215000000     0.438000000
O     4.668000000    -4.387000000     1.615000000
C     5.517000000    -3.505000000     2.225000000
C     4.931000000    -2.504000000     3.061000000
H     3.864000000    -2.299000000     3.085000000
C     6.911000000    -3.605000000     2.054000000
H     7.388000000    -4.270000000     1.338000000
C     7.714000000    -2.665000000     2.747000000
H     8.798000000    -2.724000000     2.679000000
C     7.165000000    -1.830000000     3.700000000
H     7.778000000    -1.223000000     4.361000000
C     5.795000000    -1.675000000     3.856000000
O     5.218000000    -0.947000000     4.902000000
C     4.291000000     0.021000000     4.799000000
C     3.318000000     0.073000000     5.847000000
H     3.284000000    -0.640000000     6.666000000
C     2.238000000     0.946000000     5.747000000
O     1.266000000     0.918000000     6.735000000
C     0.099000000     1.664000000     6.578000000
C    -1.001000000     1.037000000     6.011000000
H    -0.891000000     0.014000000     5.661000000
C    -0.067000000     3.036000000     6.913000000
H     0.806000000     3.545000000     7.311000000
C    -1.236000000     3.776000000     6.683000000
H    -1.356000000     4.803000000     7.019000000
C    -2.379000000     3.057000000     6.274000000
H    -3.318000000     3.591000000     6.150000000
C    -2.225000000     1.697000000     5.963000000
O    -3.335000000     1.100000000     5.500000000
C    -3.859000000     1.369000000     4.256000000
C    -5.077000000     0.786000000     3.950000000
H    -5.614000000     0.200000000     4.692000000
C    -5.542000000     0.794000000     2.612000000
O    -6.716000000     0.140000000     2.284000000
C    -7.106000000    -0.365000000     1.092000000
C    -8.169000000     0.226000000     0.432000000
H    -8.638000000     0.985000000     1.053000000
C    -8.582000000    -0.219000000    -0.834000000
H    -9.474000000     0.140000000    -1.342000000
C    -7.865000000    -1.315000000    -1.412000000
H    -8.097000000    -1.704000000    -2.400000000
C    -6.809000000    -1.898000000    -0.766000000
C    -6.399000000    -1.353000000     0.458000000
H    -5.557000000    -1.818000000     0.964000000
O    -5.013000000    -2.932000000     5.062000000
H    -5.692000000    -3.119000000     4.414000000
H    -4.195000000    -2.954000000     4.565000000
O    -2.085000000    -7.452000000     4.443000000
H    -1.398000000    -8.046000000     4.142000000
H    -2.598000000    -7.261000000     3.657000000
O    -5.282000000    -0.716000000     7.152000000
H    -5.511000000    -1.567000000     6.779000000
H    -4.639000000    -0.352000000     6.544000000
O    -0.354000000    -5.181000000     1.145000000
H    -0.024000000    -4.283000000     1.113000000
H    -1.295000000    -5.086000000     1.294000000
O    -4.055000000    -7.100000000     6.518000000
H    -4.437000000    -6.253000000     6.289000000
H    -3.358000000    -7.230000000     5.875000000
O     0.575000000    -5.923000000     6.661000000
H    -0.330000000    -5.632000000     6.549000000
H     0.806000000    -6.315000000     5.818000000
O    -3.796000000    -2.063000000     9.407000000
H    -2.881000000    -2.128000000     9.679000000
H    -3.756000000    -1.763000000     8.499000000
O    -0.338000000    -7.841000000     0.374000000
H     0.579000000    -8.012000000     0.589000000
H    -0.422000000    -6.888000000     0.424000000
O    -1.825000000    -4.996000000     5.907000000
H    -1.683000000    -4.294000000     5.272000000
H    -2.161000000    -5.726000000     5.387000000
O     1.132000000    -2.124000000     7.237000000
H     0.304000000    -1.803000000     6.881000000
H     1.369000000    -2.858000000     6.671000000
O    -4.190000000    -7.347000000     2.674000000
H    -5.092000000    -7.087000000     2.862000000
H    -3.940000000    -6.814000000     1.919000000
O    -2.510000000    -1.548000000     6.913000000
H    -2.052000000    -2.334000000     6.616000000
H    -2.802000000    -1.121000000     6.107000000
O    -3.028000000    -4.600000000     1.569000000
H    -3.831000000    -4.370000000     1.100000000
H    -3.098000000    -4.139000000     2.405000000
O    -6.598000000    -6.180000000     3.345000000
H    -6.968000000    -5.904000000     4.183000000
H    -7.005000000    -5.601000000     2.701000000
O     1.630000000    -4.150000000     4.111000000
H     1.571000000    -4.765000000     3.380000000
H     0.723000000    -3.905000000     4.291000000
O     3.743000000    -4.018000000     6.047000000
H     3.184000000    -3.892000000     5.280000000
H     3.721000000    -4.962000000     6.207000000
O    -5.328000000    -4.598000000     7.349000000
H    -5.396000000    -4.187000000     6.487000000
H    -5.430000000    -3.874000000     7.967000000
O    -7.129000000    -2.682000000     3.388000000
H    -7.550000000    -2.000000000     2.864000000
H    -7.499000000    -2.573000000     4.264000000
O    -2.473000000    -4.933000000     9.053000000
H    -2.479000000    -4.770000000     8.110000000
H    -3.321000000    -5.340000000     9.231000000
