201
-1239.55603
C     4.456000000    -2.599000000    -1.347000000
H     4.815000000    -1.863000000    -0.632000000
C     3.788000000    -2.125000000    -2.445000000
C     3.067000000    -3.059000000    -3.218000000
H     2.263000000    -2.725000000    -3.869000000
C     3.484000000    -0.653000000    -2.624000000
O     4.558000000     0.207000000    -2.247000000
H     2.616000000    -0.343000000    -2.023000000
O     3.105000000    -0.384000000    -4.008000000
C     2.100000000     0.478000000    -4.244000000
C     0.842000000    -0.042000000    -4.595000000
H     0.570000000    -1.084000000    -4.743000000
C    -0.274000000     0.692000000    -4.456000000
O    -1.421000000     0.018000000    -4.616000000
C    -0.194000000     2.092000000    -4.212000000
C    -1.381000000     3.062000000    -4.294000000
H    -1.034000000     4.058000000    -4.576000000
C    -2.039000000     3.063000000    -2.970000000
C    -1.743000000     4.067000000    -2.080000000
H    -1.057000000     4.868000000    -2.344000000
H    -2.050000000     2.724000000    -5.088000000
C     1.077000000     2.569000000    -3.900000000
H     1.304000000     3.609000000    -3.679000000
C     2.211000000     1.802000000    -3.843000000
C     3.555000000     2.478000000    -3.515000000
H     3.632000000     3.503000000    -3.882000000
H     4.345000000     1.979000000    -4.081000000
C     3.771000000     2.447000000    -2.026000000
C     3.425000000     3.441000000    -1.122000000
H     2.925000000     4.319000000    -1.524000000
C     4.403000000     1.310000000    -1.432000000
C     4.474000000     1.151000000    -0.087000000
H     4.874000000     0.278000000     0.423000000
C     4.090000000     2.235000000     0.735000000
O     4.014000000     1.944000000     2.097000000
C     2.722000000     1.624000000     2.693000000
C     2.830000000     0.533000000     3.731000000
C     1.976000000     0.462000000     4.814000000
H     1.214000000     1.216000000     4.994000000
C     3.706000000    -0.484000000     3.581000000
H     4.517000000    -0.486000000     2.857000000
O     2.252000000     2.902000000     3.230000000
H     2.036000000     1.361000000     1.874000000
C     3.541000000     3.376000000     0.215000000
C     3.048000000     4.550000000     1.065000000
H     3.040000000     5.500000000     0.528000000
H     3.760000000     4.648000000     1.887000000
C     1.535000000     4.366000000     1.538000000
C     0.421000000     4.917000000     0.785000000
H     0.586000000     5.659000000     0.009000000
C     1.220000000     3.567000000     2.647000000
C    -0.098000000     3.369000000     3.012000000
H    -0.372000000     2.790000000     3.890000000
C    -1.130000000     3.893000000     2.298000000
O    -2.455000000     3.522000000     2.560000000
C    -2.998000000     2.506000000     1.729000000
C    -3.749000000     1.478000000     2.531000000
C    -3.344000000     1.244000000     3.864000000
H    -2.529000000     1.846000000     4.259000000
C    -4.649000000     0.697000000     1.910000000
H    -4.939000000     0.899000000     0.882000000
O    -3.857000000     3.086000000     0.697000000
H    -2.150000000     1.997000000     1.248000000
C    -0.857000000     4.696000000     1.161000000
C    -1.971000000     5.156000000     0.230000000
H    -1.746000000     6.124000000    -0.223000000
H    -2.757000000     5.367000000     0.958000000
C    -2.319000000     4.088000000    -0.826000000
C    -3.306000000     3.123000000    -0.565000000
C    -3.720000000     2.155000000    -1.512000000
H    -4.436000000     1.395000000    -1.209000000
C    -3.035000000     2.078000000    -2.693000000
O    -3.241000000     0.992000000    -3.523000000
C    -2.273000000    -0.008000000    -3.426000000
H    -1.690000000     0.096000000    -2.499000000
C    -2.935000000    -1.365000000    -3.379000000
C    -2.389000000    -2.520000000    -4.010000000
H    -1.418000000    -2.405000000    -4.486000000
C    -4.139000000    -1.532000000    -2.737000000
H    -4.627000000    -0.640000000    -2.349000000
C    -4.750000000    -2.781000000    -2.634000000
O    -6.012000000    -2.927000000    -2.100000000
C    -4.171000000    -3.861000000    -3.255000000
H    -4.691000000    -4.807000000    -3.129000000
C    -2.993000000    -3.794000000    -3.919000000
O    -2.381000000    -4.925000000    -4.490000000
C    -1.076000000    -4.926000000    -4.941000000
C    -0.139000000    -5.104000000    -3.988000000
H    -0.474000000    -5.342000000    -2.982000000
C    -0.735000000    -4.706000000    -6.288000000
H    -1.524000000    -4.567000000    -7.024000000
C     0.581000000    -4.659000000    -6.701000000
H     0.729000000    -4.548000000    -7.772000000
C     1.539000000    -4.772000000    -5.703000000
H     2.582000000    -4.550000000    -5.915000000
C     1.215000000    -4.981000000    -4.372000000
O     2.172000000    -5.290000000    -3.432000000
C     3.073000000    -4.430000000    -2.920000000
C     3.931000000    -4.885000000    -1.921000000
H     3.989000000    -5.941000000    -1.672000000
C     4.500000000    -3.962000000    -1.082000000
O     5.214000000    -4.417000000     0.002000000
C     5.670000000    -3.707000000     1.016000000
C     4.896000000    -3.594000000     2.168000000
H     3.899000000    -4.010000000     2.289000000
C     6.978000000    -3.212000000     0.963000000
H     7.523000000    -3.472000000     0.060000000
C     7.515000000    -2.564000000     2.045000000
H     8.520000000    -2.178000000     1.889000000
C     6.717000000    -2.373000000     3.161000000
H     7.076000000    -1.854000000     4.046000000
C     5.453000000    -2.846000000     3.199000000
O     4.699000000    -2.604000000     4.384000000
C     3.774000000    -1.552000000     4.514000000
C     2.812000000    -1.629000000     5.528000000
H     2.832000000    -2.423000000     6.270000000
C     1.888000000    -0.605000000     5.720000000
O     1.140000000    -0.585000000     6.920000000
C    -0.053000000     0.053000000     7.088000000
C    -1.111000000     0.005000000     6.144000000
H    -0.997000000    -0.608000000     5.253000000
C    -0.273000000     0.745000000     8.283000000
H     0.614000000     0.862000000     8.900000000
C    -1.437000000     1.333000000     8.688000000
H    -1.575000000     1.822000000     9.649000000
C    -2.526000000     1.196000000     7.788000000
H    -3.513000000     1.595000000     8.006000000
C    -2.360000000     0.602000000     6.528000000
O    -3.650000000     0.244000000     5.976000000
C    -4.018000000     0.335000000     4.685000000
C    -4.960000000    -0.452000000     4.045000000
H    -5.502000000    -1.235000000     4.570000000
C    -5.292000000    -0.249000000     2.694000000
O    -6.379000000    -0.913000000     2.143000000
C    -6.736000000    -0.979000000     0.802000000
C    -7.395000000     0.103000000     0.292000000
H    -7.690000000     0.968000000     0.880000000
C    -7.750000000     0.092000000    -1.053000000
H    -8.226000000     0.978000000    -1.467000000
C    -7.295000000    -0.911000000    -1.874000000
H    -7.497000000    -0.958000000    -2.941000000
C    -6.528000000    -1.948000000    -1.300000000
C    -6.141000000    -1.940000000     0.030000000
H    -5.481000000    -2.697000000     0.445000000
O    -2.726000000    -3.460000000     4.873000000
H    -3.503000000    -3.901000000     4.528000000
H    -2.163000000    -3.335000000     4.109000000
O    -1.354000000    -6.551000000     2.144000000
H    -1.231000000    -5.641000000     2.415000000
H    -1.322000000    -6.522000000     1.187000000
O     5.007000000    -5.660000000     4.870000000
H     4.076000000    -5.438000000     4.907000000
H     5.043000000    -6.451000000     4.333000000
O     2.860000000    -4.645000000     8.166000000
H     2.877000000    -5.554000000     8.466000000
H     2.888000000    -4.708000000     7.211000000
O    -0.757000000    -4.426000000    -0.665000000
H    -1.018000000    -3.574000000    -1.015000000
H    -0.259000000    -4.218000000     0.125000000
O     1.934000000    -8.007000000    -1.047000000
H     2.047000000    -7.266000000    -0.452000000
H     0.996000000    -8.021000000    -1.238000000
O    -3.054000000    -6.073000000    -1.378000000
H    -2.295000000    -5.513000000    -1.217000000
H    -3.777000000    -5.630000000    -0.933000000
O    -0.235000000    -5.753000000     5.134000000
H    -0.696000000    -5.341000000     4.403000000
H    -0.346000000    -6.692000000     4.989000000
O    -0.415000000    -3.413000000     6.846000000
H    -1.257000000    -3.086000000     6.530000000
H    -0.211000000    -4.148000000     6.268000000
O     0.606000000    -8.364000000     2.137000000
H     1.373000000    -7.880000000     1.830000000
H    -0.084000000    -7.704000000     2.200000000
O    -4.709000000    -3.514000000     6.955000000
H    -3.845000000    -3.241000000     6.647000000
H    -4.563000000    -4.378000000     7.340000000
O    -2.062000000    -9.157000000     0.315000000
H    -2.307000000    -8.560000000     1.022000000
H    -2.815000000    -9.741000000     0.223000000
O    -3.337000000    -4.189000000     1.062000000
H    -4.003000000    -4.828000000     1.314000000
H    -2.851000000    -4.018000000     1.869000000
O     2.310000000    -5.065000000     4.633000000
H     1.526000000    -5.451000000     5.022000000
H     2.001000000    -4.657000000     3.824000000
O    -0.809000000    -8.080000000    -1.696000000
H    -1.154000000    -7.188000000    -1.667000000
H    -1.309000000    -8.552000000    -1.030000000
O    -4.918000000    -4.768000000     3.298000000
H    -5.355000000    -5.582000000     3.047000000
H    -5.634000000    -4.158000000     3.477000000
O     2.436000000    -6.276000000     1.122000000
H     3.279000000    -6.398000000     1.558000000
H     2.019000000    -5.562000000     1.604000000
O    -3.026000000    -8.760000000     3.263000000
H    -2.665000000    -7.933000000     2.944000000
H    -2.377000000    -9.079000000     3.890000000
O     4.075000000    -7.831000000     3.144000000
H     4.350000000    -8.700000000     2.851000000
H     3.773000000    -7.965000000     4.042000000
