201
-1260.06981
C     4.604000000    -2.306000000    -0.155000000
H     4.910000000    -1.635000000     0.644000000
C     4.084000000    -1.799000000    -1.341000000
C     3.605000000    -2.652000000    -2.315000000
H     3.170000000    -2.197000000    -3.201000000
C     3.931000000    -0.260000000    -1.537000000
O     4.935000000     0.587000000    -0.815000000
H     2.927000000    -0.042000000    -1.145000000
O     3.991000000     0.191000000    -2.923000000
C     2.976000000     1.058000000    -3.268000000
C     1.836000000     0.497000000    -3.847000000
H     1.825000000    -0.586000000    -3.946000000
C     0.785000000     1.324000000    -4.241000000
O    -0.283000000     0.728000000    -4.749000000
C     0.867000000     2.741000000    -4.021000000
C    -0.376000000     3.516000000    -4.235000000
H    -0.251000000     4.572000000    -4.485000000
C    -1.340000000     3.250000000    -3.059000000
C    -1.384000000     4.081000000    -1.998000000
H    -0.662000000     4.894000000    -1.994000000
H    -0.911000000     3.238000000    -5.145000000
C     1.998000000     3.230000000    -3.401000000
H     1.976000000     4.260000000    -3.056000000
C     3.088000000     2.423000000    -3.030000000
C     4.212000000     3.023000000    -2.300000000
H     4.236000000     4.089000000    -2.535000000
H     5.132000000     2.515000000    -2.597000000
C     4.041000000     2.878000000    -0.773000000
C     3.379000000     3.871000000     0.040000000
H     3.057000000     4.810000000    -0.403000000
C     4.397000000     1.714000000    -0.130000000
C     4.130000000     1.498000000     1.210000000
H     4.225000000     0.517000000     1.669000000
C     3.326000000     2.373000000     1.915000000
O     2.975000000     1.988000000     3.200000000
C     1.655000000     1.578000000     3.480000000
C     1.608000000     0.434000000     4.458000000
C     0.520000000     0.249000000     5.357000000
H    -0.299000000     0.963000000     5.383000000
C     2.569000000    -0.535000000     4.398000000
H     3.384000000    -0.471000000     3.681000000
O     0.896000000     2.749000000     4.033000000
H     1.111000000     1.194000000     2.604000000
C     2.973000000     3.618000000     1.354000000
C     2.227000000     4.616000000     2.214000000
H     2.534000000     5.643000000     2.003000000
H     2.624000000     4.483000000     3.222000000
C     0.703000000     4.373000000     2.248000000
C    -0.080000000     4.881000000     1.220000000
H     0.357000000     5.439000000     0.396000000
C     0.164000000     3.449000000     3.152000000
C    -1.222000000     3.232000000     3.166000000
H    -1.626000000     2.606000000     3.957000000
C    -2.056000000     3.789000000     2.213000000
O    -3.348000000     3.256000000     2.142000000
C    -3.491000000     2.207000000     1.186000000
C    -4.218000000     0.976000000     1.664000000
C    -4.153000000     0.611000000     3.048000000
H    -3.757000000     1.340000000     3.750000000
C    -4.944000000     0.164000000     0.753000000
H    -5.083000000     0.509000000    -0.269000000
O    -4.116000000     2.644000000     0.009000000
H    -2.474000000     1.839000000     0.985000000
C    -1.495000000     4.632000000     1.206000000
C    -2.375000000     5.166000000     0.054000000
H    -2.091000000     6.127000000    -0.379000000
H    -3.407000000     5.289000000     0.388000000
C    -2.412000000     4.130000000    -1.004000000
C    -3.275000000     3.011000000    -1.030000000
C    -3.234000000     2.142000000    -2.125000000
H    -3.945000000     1.320000000    -2.133000000
C    -2.328000000     2.283000000    -3.163000000
O    -2.365000000     1.314000000    -4.101000000
C    -1.363000000     0.245000000    -3.947000000
H    -1.210000000     0.160000000    -2.861000000
C    -1.791000000    -1.116000000    -4.292000000
C    -1.039000000    -1.911000000    -5.111000000
H    -0.108000000    -1.568000000    -5.556000000
C    -3.062000000    -1.515000000    -3.919000000
H    -3.726000000    -0.903000000    -3.315000000
C    -3.494000000    -2.812000000    -4.236000000
O    -4.740000000    -3.334000000    -3.821000000
C    -2.655000000    -3.686000000    -4.903000000
H    -2.978000000    -4.684000000    -5.188000000
C    -1.410000000    -3.234000000    -5.385000000
O    -0.621000000    -4.085000000    -6.120000000
C     0.741000000    -4.265000000    -5.876000000
C     1.191000000    -4.344000000    -4.555000000
H     0.508000000    -4.384000000    -3.711000000
C     1.639000000    -4.258000000    -6.937000000
H     1.222000000    -4.164000000    -7.936000000
C     3.017000000    -4.341000000    -6.748000000
H     3.727000000    -4.394000000    -7.570000000
C     3.465000000    -4.544000000    -5.383000000
H     4.516000000    -4.754000000    -5.202000000
C     2.554000000    -4.460000000    -4.327000000
O     2.917000000    -4.791000000    -3.067000000
C     3.555000000    -4.036000000    -2.125000000
C     4.107000000    -4.531000000    -1.020000000
H     4.165000000    -5.610000000    -0.900000000
C     4.573000000    -3.714000000     0.040000000
O     5.090000000    -4.293000000     1.128000000
C     5.399000000    -3.429000000     2.200000000
C     4.378000000    -3.067000000     3.092000000
H     3.376000000    -3.445000000     2.907000000
C     6.696000000    -3.106000000     2.445000000
H     7.490000000    -3.399000000     1.763000000
C     7.037000000    -2.579000000     3.719000000
H     8.079000000    -2.430000000     3.989000000
C     6.048000000    -2.305000000     4.679000000
H     6.231000000    -1.776000000     5.611000000
C     4.711000000    -2.471000000     4.327000000
O     3.752000000    -2.396000000     5.339000000
C     2.531000000    -1.609000000     5.308000000
C     1.494000000    -1.763000000     6.228000000
H     1.475000000    -2.623000000     6.892000000
C     0.427000000    -0.836000000     6.249000000
O    -0.640000000    -0.985000000     7.104000000
C    -1.835000000    -0.420000000     6.894000000
C    -2.647000000    -0.914000000     5.869000000
H    -2.278000000    -1.548000000     5.067000000
C    -2.321000000     0.464000000     7.857000000
H    -1.657000000     0.817000000     8.642000000
C    -3.679000000     0.805000000     7.775000000
H    -4.129000000     1.471000000     8.507000000
C    -4.521000000     0.244000000     6.868000000
H    -5.553000000     0.582000000     6.907000000
C    -3.977000000    -0.503000000     5.782000000
O    -4.892000000    -0.946000000     4.808000000
C    -4.767000000    -0.593000000     3.470000000
C    -5.462000000    -1.345000000     2.485000000
H    -6.143000000    -2.154000000     2.735000000
C    -5.530000000    -1.020000000     1.178000000
O    -6.528000000    -1.629000000     0.374000000
C    -6.529000000    -1.633000000    -1.041000000
C    -7.328000000    -0.826000000    -1.770000000
H    -7.916000000    -0.075000000    -1.249000000
C    -7.358000000    -0.913000000    -3.187000000
H    -7.950000000    -0.223000000    -3.783000000
C    -6.487000000    -1.753000000    -3.812000000
H    -6.489000000    -1.727000000    -4.898000000
C    -5.650000000    -2.593000000    -3.109000000
C    -5.707000000    -2.544000000    -1.716000000
H    -4.947000000    -3.167000000    -1.251000000
O    -3.939000000    -4.818000000     0.934000000
H    -3.564000000    -5.537000000     0.425000000
H    -3.400000000    -4.777000000     1.724000000
O    -1.461000000    -6.895000000     3.487000000
H    -1.310000000    -5.959000000     3.619000000
H    -0.951000000    -7.320000000     4.176000000
O    -0.804000000    -7.862000000     6.715000000
H    -0.330000000    -7.047000000     6.878000000
H    -0.505000000    -8.456000000     7.404000000
O    -0.874000000    -3.576000000     8.337000000
H    -1.451000000    -3.502000000     7.577000000
H    -0.539000000    -2.689000000     8.470000000
O    -4.381000000    -7.037000000     4.111000000
H    -3.949000000    -7.831000000     3.796000000
H    -3.681000000    -6.387000000     4.162000000
O     3.997000000    -6.146000000     4.841000000
H     3.436000000    -5.722000000     4.191000000
H     3.588000000    -6.998000000     4.990000000
O     2.546000000    -6.030000000     7.370000000
H     3.180000000    -5.887000000     6.668000000
H     1.720000000    -5.695000000     7.019000000
O    -5.560000000    -2.974000000     7.663000000
H    -5.451000000    -2.592000000     6.792000000
H    -6.404000000    -2.642000000     7.967000000
O     0.056000000    -4.719000000    -0.765000000
H    -0.848000000    -4.419000000    -0.862000000
H     0.585000000    -3.995000000    -1.100000000
O    -3.120000000    -6.851000000    -0.566000000
H    -2.383000000    -7.292000000    -0.144000000
H    -3.387000000    -7.447000000    -1.265000000
O     0.100000000    -5.282000000     6.461000000
H     0.278000000    -4.846000000     5.628000000
H    -0.652000000    -4.811000000     6.821000000
O    -0.842000000    -8.808000000     1.731000000
H    -0.504000000    -8.205000000     1.070000000
H    -0.998000000    -8.259000000     2.500000000
O    -2.424000000    -4.198000000     6.357000000
H    -2.220000000    -4.544000000     5.488000000
H    -2.938000000    -4.889000000     6.775000000
O     1.797000000    -5.653000000     3.357000000
H     1.321000000    -6.228000000     2.758000000
H     1.113000000    -5.177000000     3.827000000
O    -5.526000000    -4.452000000     4.163000000
H    -4.609000000    -4.178000000     4.163000000
H    -5.493000000    -5.397000000     4.309000000
O     0.375000000    -7.307000000     0.040000000
H     0.156000000    -6.375000000     0.049000000
H     0.921000000    -7.417000000    -0.739000000
O    -6.629000000    -5.173000000     1.899000000
H    -5.777000000    -5.392000000     1.522000000
H    -6.429000000    -4.881000000     2.788000000
O    -3.488000000    -6.713000000     6.893000000
H    -3.918000000    -7.517000000     6.602000000
H    -2.676000000    -7.011000000     7.303000000
O    -0.795000000    -9.622000000     4.794000000
H    -0.028000000    -9.713000000     5.360000000
H    -1.367000000    -9.014000000     5.262000000
