201
-1257.93600
C    -3.795000000    -2.316000000    -1.963000000
H    -3.825000000    -1.427000000    -2.587000000
C    -4.085000000    -2.201000000    -0.586000000
C    -4.280000000    -3.318000000     0.174000000
H    -4.688000000    -3.279000000     1.180000000
C    -4.080000000    -0.848000000     0.026000000
O    -4.877000000     0.067000000    -0.746000000
H    -3.035000000    -0.507000000     0.085000000
O    -4.709000000    -0.897000000     1.361000000
C    -4.082000000    -0.349000000     2.356000000
C    -3.158000000    -1.110000000     3.067000000
H    -3.033000000    -2.147000000     2.766000000
C    -2.281000000    -0.510000000     3.983000000
O    -1.266000000    -1.397000000     4.446000000
C    -2.268000000     0.822000000     4.187000000
C    -1.225000000     1.434000000     5.115000000
H    -1.697000000     2.319000000     5.548000000
C     0.059000000     1.755000000     4.368000000
C     0.242000000     3.053000000     3.787000000
H    -0.496000000     3.828000000     3.981000000
H    -1.026000000     0.697000000     5.896000000
C    -3.213000000     1.568000000     3.496000000
H    -3.225000000     2.630000000     3.726000000
C    -4.080000000     1.026000000     2.560000000
C    -4.993000000     1.851000000     1.652000000
H    -5.395000000     2.686000000     2.230000000
H    -5.845000000     1.207000000     1.423000000
C    -4.373000000     2.217000000     0.359000000
C    -3.701000000     3.456000000     0.252000000
H    -3.728000000     4.144000000     1.093000000
C    -4.353000000     1.375000000    -0.752000000
C    -3.810000000     1.848000000    -1.996000000
H    -3.976000000     1.223000000    -2.870000000
C    -3.053000000     3.009000000    -2.014000000
O    -2.250000000     3.119000000    -3.137000000
C    -0.846000000     2.744000000    -2.954000000
C    -0.396000000     1.964000000    -4.105000000
C     0.909000000     2.080000000    -4.533000000
H     1.602000000     2.672000000    -3.941000000
C    -1.264000000     1.059000000    -4.821000000
H    -2.273000000     0.853000000    -4.475000000
O    -0.210000000     3.988000000    -2.774000000
H    -0.748000000     2.191000000    -2.008000000
C    -2.953000000     3.820000000    -0.880000000
C    -2.116000000     5.083000000    -0.966000000
H    -2.513000000     5.834000000    -0.279000000
H    -2.165000000     5.467000000    -1.987000000
C    -0.603000000     4.833000000    -0.560000000
C    -0.149000000     5.092000000     0.756000000
H    -0.866000000     5.271000000     1.553000000
C     0.218000000     4.278000000    -1.458000000
C     1.538000000     4.027000000    -1.154000000
H     2.143000000     3.493000000    -1.882000000
C     2.016000000     4.236000000     0.178000000
O     3.310000000     3.715000000     0.410000000
C     3.438000000     2.468000000     0.928000000
C     4.576000000     1.681000000     0.381000000
C     4.830000000     1.781000000    -0.977000000
H     4.163000000     2.399000000    -1.572000000
C     5.266000000     0.751000000     1.155000000
H     4.971000000     0.583000000     2.188000000
O     3.610000000     2.561000000     2.370000000
H     2.507000000     1.915000000     0.735000000
C     1.148000000     4.768000000     1.131000000
C     1.607000000     4.806000000     2.568000000
H     0.993000000     5.515000000     3.126000000
H     2.640000000     5.162000000     2.573000000
C     1.448000000     3.382000000     3.195000000
C     2.448000000     2.387000000     3.074000000
C     2.216000000     1.038000000     3.412000000
H     2.977000000     0.303000000     3.161000000
C     1.012000000     0.768000000     4.115000000
O     0.848000000    -0.544000000     4.576000000
C    -0.003000000    -1.265000000     3.712000000
H    -0.201000000    -0.685000000     2.798000000
C     0.605000000    -2.654000000     3.429000000
C    -0.230000000    -3.714000000     3.261000000
H    -1.303000000    -3.566000000     3.355000000
C     1.993000000    -2.702000000     3.298000000
H     2.665000000    -1.859000000     3.439000000
C     2.581000000    -3.957000000     3.080000000
O     3.844000000    -4.088000000     2.549000000
C     1.802000000    -5.039000000     3.014000000
H     2.221000000    -5.955000000     2.604000000
C     0.405000000    -4.948000000     3.158000000
O    -0.375000000    -6.079000000     3.048000000
C    -1.727000000    -6.116000000     2.928000000
C    -2.261000000    -5.985000000     1.697000000
H    -1.673000000    -6.012000000     0.783000000
C    -2.493000000    -6.004000000     4.089000000
H    -2.018000000    -6.083000000     5.064000000
C    -3.916000000    -5.889000000     4.021000000
H    -4.504000000    -5.883000000     4.935000000
C    -4.475000000    -5.784000000     2.711000000
H    -5.533000000    -5.706000000     2.474000000
C    -3.630000000    -5.891000000     1.609000000
O    -4.254000000    -5.682000000     0.381000000
C    -4.016000000    -4.539000000    -0.367000000
C    -3.622000000    -4.694000000    -1.675000000
H    -3.382000000    -5.710000000    -1.980000000
C    -3.538000000    -3.550000000    -2.530000000
O    -3.178000000    -3.643000000    -3.833000000
C    -3.431000000    -2.680000000    -4.802000000
C    -2.392000000    -1.871000000    -5.278000000
H    -1.420000000    -2.006000000    -4.811000000
C    -4.763000000    -2.523000000    -5.228000000
H    -5.522000000    -3.122000000    -4.731000000
C    -5.045000000    -1.591000000    -6.233000000
H    -6.086000000    -1.428000000    -6.502000000
C    -4.005000000    -0.887000000    -6.842000000
H    -4.180000000    -0.180000000    -7.649000000
C    -2.687000000    -0.980000000    -6.302000000
O    -1.760000000    -0.131000000    -6.842000000
C    -0.879000000     0.540000000    -6.034000000
C     0.396000000     0.837000000    -6.512000000
H     0.690000000     0.488000000    -7.499000000
C     1.277000000     1.581000000    -5.777000000
O     2.566000000     1.732000000    -6.217000000
C     3.612000000     2.237000000    -5.422000000
C     4.332000000     1.301000000    -4.655000000
H     3.893000000     0.321000000    -4.487000000
C     4.030000000     3.526000000    -5.529000000
H     3.577000000     4.312000000    -6.127000000
C     5.024000000     3.974000000    -4.633000000
H     5.234000000     5.041000000    -4.646000000
C     5.626000000     3.117000000    -3.758000000
H     6.441000000     3.481000000    -3.138000000
C     5.343000000     1.774000000    -3.807000000
O     5.993000000     0.933000000    -2.951000000
C     5.847000000     1.016000000    -1.595000000
C     6.636000000     0.135000000    -0.804000000
H     7.419000000    -0.497000000    -1.216000000
C     6.304000000     0.069000000     0.530000000
O     7.039000000    -0.903000000     1.231000000
C     6.514000000    -1.752000000     2.114000000
C     6.876000000    -1.495000000     3.494000000
H     7.641000000    -0.759000000     3.730000000
C     6.223000000    -2.125000000     4.560000000
H     6.411000000    -1.902000000     5.608000000
C     5.269000000    -3.066000000     4.277000000
H     4.907000000    -3.638000000     5.127000000
C     4.879000000    -3.267000000     2.937000000
C     5.470000000    -2.606000000     1.866000000
H     5.167000000    -2.828000000     0.846000000
O     2.219000000    -8.711000000     1.712000000
H     3.005000000    -9.163000000     2.020000000
H     1.603000000    -8.778000000     2.442000000
O    -0.760000000    -6.602000000    -4.903000000
H    -0.443000000    -6.105000000    -4.148000000
H    -0.188000000    -7.369000000    -4.942000000
O     5.139000000    -6.856000000     3.318000000
H     4.820000000    -5.956000000     3.379000000
H     5.288000000    -6.994000000     2.382000000
O     0.911000000    -7.934000000    -0.384000000
H     1.362000000    -8.189000000     0.420000000
H     1.225000000    -7.048000000    -0.565000000
O     4.102000000    -7.007000000     0.637000000
H     3.999000000    -6.260000000     0.049000000
H     3.293000000    -7.508000000     0.534000000
O     0.614000000    -5.191000000    -3.141000000
H     1.037000000    -4.513000000    -3.669000000
H     1.269000000    -5.425000000    -2.483000000
O     6.314000000    -4.494000000    -2.275000000
H     6.370000000    -3.673000000    -2.763000000
H     5.476000000    -4.443000000    -1.815000000
O     5.755000000    -9.110000000    -0.443000000
H     5.158000000    -8.379000000    -0.288000000
H     5.487000000    -9.462000000    -1.292000000
O     3.840000000    -4.980000000    -4.329000000
H     4.597000000    -4.416000000    -4.488000000
H     3.189000000    -4.401000000    -3.931000000
O     0.346000000    -0.982000000    -3.234000000
H    -0.084000000    -0.152000000    -3.028000000
H     0.429000000    -1.425000000    -2.389000000
O     6.455000000    -7.054000000    -3.770000000
H     6.441000000    -7.256000000    -2.835000000
H     6.647000000    -6.117000000    -3.811000000
O     3.176000000    -7.604000000    -2.958000000
H     3.602000000    -6.752000000    -3.051000000
H     2.474000000    -7.453000000    -2.325000000
O     9.040000000    -5.572000000    -1.840000000
H     9.184000000    -6.343000000    -2.389000000
H     8.145000000    -5.297000000    -2.042000000
O     0.128000000   -10.508000000    -1.434000000
H     0.503000000    -9.676000000    -1.146000000
H     0.294000000   -10.533000000    -2.376000000
O     4.695000000    -9.732000000    -2.914000000
H     4.300000000    -8.891000000    -3.144000000
H     4.568000000   -10.276000000    -3.692000000
O     6.677000000    -5.469000000     0.372000000
H     5.751000000    -5.704000000     0.313000000
H     6.788000000    -4.772000000    -0.276000000
O     2.916000000    -6.366000000    -6.659000000
H     2.382000000    -5.652000000    -7.008000000
H     3.361000000    -5.984000000    -5.902000000
O     1.512000000    -3.197000000    -4.592000000
H     1.308000000    -2.347000000    -4.202000000
H     2.026000000    -2.986000000    -5.371000000
O     5.942000000    -3.394000000    -5.116000000
H     6.251000000    -4.078000000    -5.710000000
H     6.707000000    -3.178000000    -4.582000000
