201
-1221.71060
C     4.469000000    -1.246000000    -0.494000000
H     4.638000000    -0.640000000     0.393000000
C     4.115000000    -0.670000000    -1.707000000
C     3.972000000    -1.462000000    -2.835000000
H     3.585000000    -1.088000000    -3.780000000
C     3.843000000     0.863000000    -1.786000000
O     4.707000000     1.624000000    -1.049000000
H     2.903000000     0.923000000    -1.218000000
O     3.696000000     1.427000000    -3.130000000
C     2.554000000     2.126000000    -3.387000000
C     1.583000000     1.435000000    -4.070000000
H     1.894000000     0.508000000    -4.546000000
C     0.328000000     1.952000000    -4.202000000
O    -0.637000000     1.141000000    -4.733000000
C     0.002000000     3.213000000    -3.634000000
C    -1.403000000     3.767000000    -3.669000000
H    -1.327000000     4.846000000    -3.518000000
C    -2.293000000     3.314000000    -2.614000000
C    -2.339000000     4.129000000    -1.520000000
H    -1.795000000     5.070000000    -1.504000000
H    -1.883000000     3.716000000    -4.649000000
C     0.981000000     3.898000000    -2.866000000
H     0.730000000     4.866000000    -2.442000000
C     2.233000000     3.325000000    -2.808000000
C     3.302000000     4.091000000    -2.063000000
H     3.081000000     5.154000000    -2.177000000
H     4.204000000     3.863000000    -2.636000000
C     3.412000000     3.567000000    -0.612000000
C     2.591000000     4.262000000     0.323000000
H     2.020000000     5.136000000     0.019000000
C     4.109000000     2.471000000    -0.171000000
C     3.979000000     2.002000000     1.138000000
H     4.491000000     1.119000000     1.513000000
C     3.200000000     2.702000000     2.024000000
O     3.075000000     2.209000000     3.312000000
C     1.834000000     1.508000000     3.545000000
C     2.114000000     0.200000000     4.226000000
C     0.991000000    -0.658000000     4.364000000
H     0.002000000    -0.445000000     3.967000000
C     3.395000000    -0.199000000     4.725000000
H     4.199000000     0.487000000     4.473000000
O     0.828000000     2.354000000     4.268000000
H     1.361000000     1.326000000     2.569000000
C     2.520000000     3.879000000     1.665000000
C     1.622000000     4.646000000     2.530000000
H     1.572000000     5.708000000     2.282000000
H     2.142000000     4.612000000     3.490000000
C     0.161000000     4.064000000     2.606000000
C    -0.853000000     4.558000000     1.768000000
H    -0.706000000     5.385000000     1.077000000
C    -0.154000000     2.982000000     3.457000000
C    -1.415000000     2.488000000     3.509000000
H    -1.619000000     1.666000000     4.191000000
C    -2.436000000     3.117000000     2.753000000
O    -3.619000000     2.457000000     2.686000000
C    -3.797000000     1.475000000     1.692000000
C    -4.541000000     0.219000000     2.169000000
C    -4.305000000    -0.264000000     3.400000000
H    -3.701000000     0.360000000     4.054000000
C    -5.240000000    -0.573000000     1.202000000
H    -5.185000000    -0.253000000     0.165000000
O    -4.549000000     2.091000000     0.576000000
H    -2.781000000     1.213000000     1.362000000
C    -2.128000000     4.041000000     1.814000000
C    -3.144000000     4.546000000     0.829000000
H    -3.174000000     5.627000000     0.675000000
H    -4.109000000     4.441000000     1.330000000
C    -3.178000000     3.761000000    -0.451000000
C    -3.914000000     2.573000000    -0.537000000
C    -3.888000000     1.769000000    -1.678000000
H    -4.427000000     0.831000000    -1.779000000
C    -3.014000000     2.088000000    -2.731000000
O    -2.873000000     1.282000000    -3.851000000
C    -1.673000000     0.525000000    -3.884000000
H    -1.317000000     0.459000000    -2.845000000
C    -1.961000000    -0.978000000    -4.253000000
C    -0.995000000    -1.713000000    -4.957000000
H     0.020000000    -1.344000000    -5.079000000
C    -3.097000000    -1.598000000    -3.881000000
H    -3.813000000    -1.105000000    -3.228000000
C    -3.402000000    -2.878000000    -4.192000000
O    -4.383000000    -3.618000000    -3.512000000
C    -2.477000000    -3.612000000    -4.876000000
H    -2.687000000    -4.643000000    -5.151000000
C    -1.239000000    -3.065000000    -5.245000000
O    -0.283000000    -3.823000000    -5.889000000
C     1.084000000    -3.578000000    -5.883000000
C     1.890000000    -3.614000000    -4.714000000
H     1.473000000    -3.600000000    -3.710000000
C     1.760000000    -3.328000000    -7.117000000
H     1.153000000    -3.220000000    -8.012000000
C     3.138000000    -3.255000000    -7.265000000
H     3.525000000    -3.096000000    -8.268000000
C     3.862000000    -3.390000000    -6.049000000
H     4.936000000    -3.243000000    -6.130000000
C     3.266000000    -3.496000000    -4.787000000
O     4.187000000    -3.609000000    -3.720000000
C     4.218000000    -2.805000000    -2.694000000
C     4.491000000    -3.374000000    -1.428000000
H     4.604000000    -4.456000000    -1.419000000
C     4.641000000    -2.577000000    -0.333000000
O     4.865000000    -3.293000000     0.825000000
C     5.529000000    -2.740000000     1.964000000
C     5.044000000    -2.912000000     3.239000000
H     4.046000000    -3.314000000     3.393000000
C     6.770000000    -2.109000000     1.757000000
H     7.254000000    -2.121000000     0.784000000
C     7.453000000    -1.589000000     2.887000000
H     8.451000000    -1.180000000     2.754000000
C     6.813000000    -1.532000000     4.145000000
H     7.384000000    -1.086000000     4.955000000
C     5.569000000    -2.165000000     4.289000000
O     4.727000000    -1.993000000     5.364000000
C     3.460000000    -1.535000000     5.149000000
C     2.381000000    -2.394000000     5.321000000
H     2.479000000    -3.446000000     5.578000000
C     1.150000000    -1.972000000     4.867000000
O     0.102000000    -2.815000000     4.941000000
C    -1.055000000    -2.367000000     5.566000000
C    -2.312000000    -2.472000000     4.901000000
H    -2.477000000    -2.931000000     3.929000000
C    -0.962000000    -1.805000000     6.841000000
H     0.020000000    -1.659000000     7.283000000
C    -2.132000000    -1.254000000     7.439000000
H    -2.049000000    -0.708000000     8.375000000
C    -3.360000000    -1.199000000     6.726000000
H    -4.258000000    -0.758000000     7.152000000
C    -3.439000000    -1.890000000     5.553000000
O    -4.675000000    -2.003000000     5.005000000
C    -4.943000000    -1.475000000     3.768000000
C    -5.675000000    -2.280000000     2.855000000
H    -6.068000000    -3.262000000     3.105000000
C    -5.789000000    -1.833000000     1.520000000
O    -6.445000000    -2.670000000     0.621000000
C    -6.417000000    -2.496000000    -0.675000000
C    -7.390000000    -1.803000000    -1.336000000
H    -8.140000000    -1.359000000    -0.687000000
C    -7.265000000    -1.492000000    -2.681000000
H    -7.957000000    -0.946000000    -3.317000000
C    -6.254000000    -2.171000000    -3.414000000
H    -6.142000000    -2.013000000    -4.483000000
C    -5.320000000    -3.063000000    -2.787000000
C    -5.363000000    -3.133000000    -1.390000000
H    -4.607000000    -3.721000000    -0.877000000
O    -2.758000000    -5.969000000     0.077000000
H    -2.573000000    -5.539000000    -0.758000000
H    -2.309000000    -5.430000000     0.729000000
O     0.701000000    -7.252000000     1.319000000
H     0.482000000    -6.324000000     1.239000000
H     0.198000000    -7.678000000     0.625000000
O    -1.755000000    -9.682000000     3.629000000
H    -1.795000000   -10.423000000     4.233000000
H    -0.819000000    -9.534000000     3.493000000
O     4.561000000    -6.021000000     4.494000000
H     3.734000000    -5.632000000     4.211000000
H     4.656000000    -5.745000000     5.406000000
O    -0.633000000    -6.478000000     6.493000000
H    -1.159000000    -6.450000000     5.694000000
H     0.264000000    -6.609000000     6.185000000
O    -5.862000000    -4.636000000     5.309000000
H    -5.158000000    -4.907000000     4.721000000
H    -5.412000000    -4.226000000     6.048000000
O    -0.188000000    -2.637000000    -1.951000000
H    -0.196000000    -2.012000000    -1.225000000
H     0.388000000    -3.341000000    -1.655000000
O     3.626000000    -6.380000000     0.613000000
H     3.003000000    -7.038000000     0.921000000
H     3.112000000    -5.815000000     0.037000000
O    -1.967000000    -4.619000000    -2.175000000
H    -1.379000000    -3.864000000    -2.178000000
H    -2.608000000    -4.425000000    -2.860000000
O     1.977000000    -5.252000000     3.644000000
H     1.951000000    -5.350000000     2.692000000
H     1.137000000    -4.850000000     3.866000000
O     2.790000000    -7.189000000    -2.795000000
H     1.999000000    -7.519000000    -2.370000000
H     2.596000000    -6.271000000    -2.985000000
O    -4.720000000    -6.810000000     1.522000000
H    -3.903000000    -6.519000000     1.117000000
H    -4.719000000    -6.398000000     2.387000000
O    -3.768000000    -5.504000000     3.777000000
H    -3.476000000    -4.887000000     3.107000000
H    -2.962000000    -5.908000000     4.098000000
O     1.227000000    -8.898000000    -1.228000000
H     0.603000000    -9.584000000    -1.466000000
H     0.681000000    -8.167000000    -0.939000000
O     1.554000000    -4.288000000    -0.719000000
H     1.240000000    -4.412000000     0.177000000
H     2.378000000    -3.810000000    -0.620000000
O    -1.351000000    -6.455000000     3.919000000
H    -0.916000000    -7.236000000     3.576000000
H    -1.366000000    -5.847000000     3.180000000
O    -1.807000000    -8.393000000    -0.099000000
H    -2.180000000    -8.581000000    -0.961000000
H    -2.223000000    -7.573000000     0.168000000
O     1.086000000    -9.098000000     3.515000000
H     1.213000000    -8.450000000     2.822000000
H     1.727000000    -8.862000000     4.185000000
O     0.229000000    -6.282000000    -2.196000000
H    -0.573000000    -6.120000000    -2.693000000
H     0.325000000    -5.510000000    -1.638000000
