201
-1215.24758
C     4.637000000    -1.955000000    -0.676000000
H     5.140000000    -1.315000000     0.045000000
C     3.917000000    -1.442000000    -1.731000000
C     3.357000000    -2.294000000    -2.657000000
H     2.798000000    -1.810000000    -3.453000000
C     3.750000000     0.098000000    -1.862000000
O     4.653000000     0.832000000    -1.040000000
H     2.744000000     0.274000000    -1.454000000
O     3.630000000     0.557000000    -3.254000000
C     2.631000000     1.509000000    -3.537000000
C     1.545000000     1.015000000    -4.252000000
H     1.660000000     0.032000000    -4.701000000
C     0.440000000     1.797000000    -4.352000000
O    -0.626000000     1.210000000    -4.901000000
C     0.318000000     3.049000000    -3.684000000
C    -0.914000000     3.947000000    -3.786000000
H    -0.518000000     4.954000000    -3.644000000
C    -1.859000000     3.691000000    -2.690000000
C    -1.804000000     4.426000000    -1.498000000
H    -1.111000000     5.239000000    -1.300000000
H    -1.406000000     3.934000000    -4.761000000
C     1.524000000     3.551000000    -3.060000000
H     1.683000000     4.589000000    -2.777000000
C     2.669000000     2.815000000    -2.965000000
C     3.825000000     3.347000000    -2.156000000
H     3.875000000     4.419000000    -2.359000000
H     4.740000000     2.973000000    -2.622000000
C     3.742000000     3.031000000    -0.686000000
C     3.163000000     4.005000000     0.186000000
H     2.667000000     4.825000000    -0.326000000
C     4.332000000     1.818000000    -0.171000000
C     4.276000000     1.559000000     1.166000000
H     4.483000000     0.560000000     1.542000000
C     3.671000000     2.475000000     1.999000000
O     3.489000000     1.895000000     3.213000000
C     2.149000000     1.436000000     3.555000000
C     2.210000000     0.106000000     4.244000000
C     1.027000000    -0.497000000     4.668000000
H     0.080000000     0.021000000     4.538000000
C     3.386000000    -0.579000000     4.405000000
H     4.317000000    -0.161000000     4.030000000
O     1.381000000     2.457000000     4.225000000
H     1.662000000     1.201000000     2.597000000
C     3.106000000     3.674000000     1.584000000
C     2.311000000     4.580000000     2.503000000
H     2.265000000     5.642000000     2.255000000
H     2.773000000     4.559000000     3.492000000
C     0.794000000     4.142000000     2.579000000
C    -0.143000000     4.786000000     1.843000000
H     0.078000000     5.655000000     1.228000000
C     0.486000000     3.066000000     3.436000000
C    -0.800000000     2.681000000     3.550000000
H    -1.132000000     1.825000000     4.131000000
C    -1.791000000     3.232000000     2.685000000
O    -3.053000000     2.673000000     2.668000000
C    -3.435000000     1.829000000     1.547000000
C    -4.186000000     0.614000000     2.037000000
C    -4.088000000     0.142000000     3.366000000
H    -3.396000000     0.473000000     4.136000000
C    -5.010000000    -0.079000000     1.123000000
H    -5.154000000     0.212000000     0.086000000
O    -4.176000000     2.638000000     0.656000000
H    -2.559000000     1.456000000     0.996000000
C    -1.441000000     4.205000000     1.761000000
C    -2.458000000     4.913000000     0.873000000
H    -2.030000000     5.899000000     0.678000000
H    -3.468000000     5.081000000     1.252000000
C    -2.588000000     4.113000000    -0.428000000
C    -3.485000000     3.044000000    -0.449000000
C    -3.554000000     2.340000000    -1.660000000
H    -4.111000000     1.408000000    -1.707000000
C    -2.776000000     2.665000000    -2.770000000
O    -2.735000000     1.683000000    -3.828000000
C    -1.652000000     0.717000000    -4.037000000
H    -1.181000000     0.487000000    -3.070000000
C    -2.199000000    -0.646000000    -4.386000000
C    -1.451000000    -1.585000000    -5.068000000
H    -0.439000000    -1.299000000    -5.345000000
C    -3.467000000    -1.107000000    -3.886000000
H    -4.098000000    -0.537000000    -3.209000000
C    -3.932000000    -2.413000000    -4.203000000
O    -5.199000000    -2.904000000    -3.752000000
C    -3.142000000    -3.248000000    -4.944000000
H    -3.588000000    -4.213000000    -5.170000000
C    -1.933000000    -2.816000000    -5.394000000
O    -1.097000000    -3.654000000    -6.075000000
C     0.248000000    -3.799000000    -5.934000000
C     0.877000000    -4.071000000    -4.737000000
H     0.271000000    -4.246000000    -3.851000000
C     1.122000000    -3.654000000    -6.978000000
H     0.806000000    -3.465000000    -8.001000000
C     2.526000000    -3.732000000    -6.857000000
H     3.212000000    -3.479000000    -7.662000000
C     3.114000000    -3.981000000    -5.631000000
H     4.177000000    -4.043000000    -5.413000000
C     2.257000000    -4.115000000    -4.581000000
O     2.691000000    -4.492000000    -3.341000000
C     3.413000000    -3.694000000    -2.468000000
C     4.171000000    -4.245000000    -1.436000000
H     4.176000000    -5.307000000    -1.202000000
C     4.801000000    -3.358000000    -0.520000000
O     5.564000000    -3.986000000     0.486000000
C     5.922000000    -3.329000000     1.659000000
C     5.046000000    -3.315000000     2.791000000
H     4.128000000    -3.894000000     2.748000000
C     6.953000000    -2.439000000     1.573000000
H     7.594000000    -2.393000000     0.697000000
C     7.294000000    -1.622000000     2.615000000
H     8.186000000    -1.003000000     2.637000000
C     6.481000000    -1.641000000     3.790000000
H     6.878000000    -1.092000000     4.640000000
C     5.361000000    -2.518000000     3.888000000
O     4.596000000    -2.553000000     5.000000000
C     3.389000000    -1.843000000     4.946000000
C     2.210000000    -2.406000000     5.357000000
H     2.115000000    -3.432000000     5.705000000
C     1.020000000    -1.780000000     5.234000000
O    -0.146000000    -2.549000000     5.444000000
C    -1.303000000    -2.047000000     5.984000000
C    -2.492000000    -1.952000000     5.242000000
H    -2.482000000    -2.180000000     4.179000000
C    -1.406000000    -1.889000000     7.369000000
H    -0.484000000    -1.962000000     7.941000000
C    -2.596000000    -1.482000000     7.954000000
H    -2.631000000    -1.350000000     9.032000000
C    -3.755000000    -1.409000000     7.188000000
H    -4.662000000    -1.167000000     7.735000000
C    -3.771000000    -1.637000000     5.842000000
O    -4.966000000    -1.364000000     5.084000000
C    -5.046000000    -0.819000000     3.761000000
C    -5.868000000    -1.440000000     2.814000000
H    -6.453000000    -2.283000000     3.172000000
C    -5.872000000    -1.143000000     1.489000000
O    -6.633000000    -1.915000000     0.684000000
C    -6.649000000    -1.615000000    -0.605000000
C    -7.463000000    -0.538000000    -1.144000000
H    -8.086000000     0.091000000    -0.512000000
C    -7.429000000    -0.332000000    -2.572000000
H    -8.021000000     0.424000000    -3.083000000
C    -6.703000000    -1.155000000    -3.392000000
H    -6.671000000    -1.044000000    -4.473000000
C    -6.002000000    -2.217000000    -2.859000000
C    -5.961000000    -2.474000000    -1.509000000
H    -5.273000000    -3.222000000    -1.122000000
O    -2.880000000    -9.131000000     2.625000000
H    -3.354000000    -9.836000000     2.184000000
H    -2.501000000    -8.615000000     1.913000000
O     2.516000000    -6.551000000     0.861000000
H     1.802000000    -6.684000000     0.238000000
H     2.273000000    -5.758000000     1.339000000
O    -1.575000000    -9.361000000    -1.884000000
H    -1.697000000   -10.286000000    -1.669000000
H    -1.716000000    -8.902000000    -1.056000000
O     1.160000000    -6.953000000    -1.981000000
H     0.234000000    -6.709000000    -1.972000000
H     1.624000000    -6.123000000    -2.092000000
O    -3.939000000    -5.144000000    -2.185000000
H    -4.176000000    -5.320000000    -3.096000000
H    -4.662000000    -5.510000000    -1.675000000
O    -1.145000000    -7.434000000     4.564000000
H    -1.440000000    -7.267000000     5.459000000
H    -1.784000000    -8.054000000     4.213000000
O    -1.355000000    -5.455000000    -1.910000000
H    -2.298000000    -5.387000000    -2.060000000
H    -1.187000000    -4.867000000    -1.173000000
O     4.508000000    -6.255000000     2.664000000
H     3.714000000    -6.332000000     3.193000000
H     4.190000000    -6.050000000     1.784000000
O     5.569000000    -9.612000000     1.575000000
H     4.667000000    -9.296000000     1.640000000
H     6.105000000    -8.855000000     1.808000000
O    -4.318000000    -6.126000000     0.470000000
H    -4.140000000    -5.277000000     0.873000000
H    -5.161000000    -6.011000000     0.031000000
O    -1.340000000    -7.571000000     0.463000000
H    -1.031000000    -6.814000000     0.962000000
H    -2.055000000    -7.228000000    -0.073000000
O    -2.488000000    -4.895000000     3.201000000
H    -2.116000000    -5.475000000     3.866000000
H    -1.911000000    -4.997000000     2.444000000
O     1.157000000    -9.963000000    -0.246000000
H     0.866000000    -9.644000000    -1.101000000
H     0.949000000    -9.251000000     0.359000000
O     2.968000000    -9.005000000     1.993000000
H     2.829000000    -8.192000000     1.508000000
H     2.498000000    -8.875000000     2.817000000
O     1.377000000    -6.399000000     4.139000000
H     0.478000000    -6.723000000     4.087000000
H     1.489000000    -5.873000000     3.346000000
O    -5.384000000    -5.003000000     3.588000000
H    -5.630000000    -5.887000000     3.314000000
H    -4.456000000    -5.072000000     3.814000000
O    -5.374000000    -7.725000000     3.565000000
H    -4.419000000    -7.696000000     3.608000000
H    -5.653000000    -7.795000000     4.478000000
O     0.122000000    -5.210000000     6.578000000
H    -0.338000000    -4.390000000     6.400000000
H     0.478000000    -5.474000000     5.730000000
O    -1.083000000    -6.592000000    -4.417000000
H    -0.129000000    -6.650000000    -4.379000000
H    -1.339000000    -6.272000000    -3.552000000
