201
-1259.51826
C     4.949000000    -0.118000000    -0.144000000
H     4.626000000     0.287000000     0.812000000
C     4.526000000     0.557000000    -1.310000000
C     4.805000000    -0.040000000    -2.550000000
H     4.594000000     0.459000000    -3.492000000
C     3.755000000     1.829000000    -1.241000000
O     4.086000000     2.731000000    -0.127000000
H     2.717000000     1.591000000    -0.964000000
O     3.549000000     2.432000000    -2.586000000
C     2.219000000     2.696000000    -2.937000000
C     1.507000000     1.781000000    -3.681000000
H     1.988000000     0.847000000    -3.960000000
C     0.155000000     2.121000000    -3.973000000
O    -0.513000000     1.136000000    -4.556000000
C    -0.506000000     3.267000000    -3.454000000
C    -1.972000000     3.579000000    -3.701000000
H    -2.132000000     4.658000000    -3.659000000
C    -2.927000000     2.870000000    -2.756000000
C    -3.388000000     3.574000000    -1.617000000
H    -3.075000000     4.609000000    -1.507000000
H    -2.152000000     3.237000000    -4.722000000
C     0.244000000     4.029000000    -2.581000000
H    -0.194000000     4.908000000    -2.114000000
C     1.577000000     3.819000000    -2.404000000
C     2.321000000     4.712000000    -1.487000000
H     1.934000000     5.731000000    -1.548000000
H     3.390000000     4.610000000    -1.686000000
C     2.179000000     4.252000000    -0.059000000
C     1.189000000     4.822000000     0.771000000
H     0.413000000     5.505000000     0.436000000
C     3.166000000     3.417000000     0.537000000
C     3.024000000     3.054000000     1.849000000
H     3.657000000     2.292000000     2.296000000
C     2.005000000     3.488000000     2.662000000
O     1.833000000     2.837000000     3.877000000
C     0.849000000     1.795000000     3.861000000
C     1.330000000     0.545000000     4.634000000
C     0.401000000    -0.091000000     5.449000000
H    -0.586000000     0.352000000     5.550000000
C     2.627000000     0.042000000     4.505000000
H     3.284000000     0.643000000     3.881000000
O    -0.307000000     2.439000000     4.467000000
H     0.521000000     1.415000000     2.882000000
C     1.124000000     4.430000000     2.139000000
C    -0.063000000     4.891000000     2.924000000
H    -0.252000000     5.944000000     2.707000000
H     0.239000000     4.861000000     3.973000000
C    -1.278000000     3.913000000     2.772000000
C    -2.210000000     4.152000000     1.814000000
H    -2.117000000     4.981000000     1.117000000
C    -1.346000000     2.715000000     3.579000000
C    -2.421000000     1.842000000     3.414000000
H    -2.511000000     0.932000000     4.003000000
C    -3.371000000     2.073000000     2.407000000
O    -4.366000000     1.137000000     2.268000000
C    -4.138000000     0.362000000     1.076000000
C    -4.253000000    -1.182000000     1.298000000
C    -3.437000000    -1.808000000     2.294000000
H    -2.664000000    -1.270000000     2.836000000
C    -5.082000000    -1.974000000     0.444000000
H    -5.654000000    -1.553000000    -0.380000000
O    -5.062000000     0.883000000     0.113000000
H    -3.075000000     0.484000000     0.822000000
C    -3.297000000     3.254000000     1.658000000
C    -4.414000000     3.592000000     0.753000000
H    -4.649000000     4.656000000     0.694000000
H    -5.359000000     3.208000000     1.142000000
C    -4.141000000     2.967000000    -0.632000000
C    -4.456000000     1.621000000    -0.848000000
C    -4.021000000     0.927000000    -1.946000000
H    -4.226000000    -0.138000000    -2.016000000
C    -3.172000000     1.533000000    -2.861000000
O    -2.590000000     0.749000000    -3.794000000
C    -1.253000000     0.208000000    -3.755000000
H    -1.010000000     0.183000000    -2.682000000
C    -1.103000000    -1.218000000    -4.274000000
C     0.066000000    -1.641000000    -4.942000000
H     0.837000000    -0.918000000    -5.194000000
C    -1.978000000    -2.186000000    -3.850000000
H    -2.931000000    -1.982000000    -3.366000000
C    -1.691000000    -3.540000000    -3.978000000
O    -2.542000000    -4.545000000    -3.534000000
C    -0.566000000    -3.930000000    -4.697000000
H    -0.283000000    -4.962000000    -4.888000000
C     0.295000000    -2.980000000    -5.217000000
O     1.516000000    -3.393000000    -5.812000000
C     2.599000000    -2.573000000    -5.829000000
C     3.516000000    -2.611000000    -4.806000000
H     3.244000000    -3.237000000    -3.960000000
C     2.859000000    -1.947000000    -7.019000000
H     2.250000000    -2.090000000    -7.907000000
C     3.968000000    -1.122000000    -7.086000000
H     4.122000000    -0.553000000    -7.999000000
C     4.898000000    -1.105000000    -6.034000000
H     5.781000000    -0.480000000    -6.147000000
C     4.691000000    -1.831000000    -4.853000000
O     5.673000000    -1.831000000    -3.888000000
C     5.482000000    -1.217000000    -2.689000000
C     5.915000000    -1.889000000    -1.545000000
H     6.385000000    -2.849000000    -1.738000000
C     5.689000000    -1.307000000    -0.295000000
O     6.168000000    -1.958000000     0.812000000
C     6.182000000    -1.404000000     2.134000000
C     5.247000000    -1.729000000     3.060000000
H     4.523000000    -2.529000000     2.924000000
C     7.072000000    -0.359000000     2.363000000
H     7.724000000     0.032000000     1.586000000
C     7.097000000     0.218000000     3.653000000
H     7.940000000     0.891000000     3.793000000
C     6.278000000    -0.217000000     4.702000000
H     6.261000000     0.330000000     5.641000000
C     5.278000000    -1.154000000     4.361000000
O     4.333000000    -1.561000000     5.222000000
C     2.997000000    -1.103000000     5.204000000
C     2.107000000    -1.730000000     6.064000000
H     2.338000000    -2.619000000     6.646000000
C     0.777000000    -1.266000000     6.104000000
O    -0.150000000    -1.937000000     6.816000000
C    -1.402000000    -2.343000000     6.336000000
C    -1.450000000    -2.983000000     5.079000000
H    -0.544000000    -3.239000000     4.535000000
C    -2.533000000    -2.064000000     7.067000000
H    -2.526000000    -1.481000000     7.984000000
C    -3.753000000    -2.565000000     6.563000000
H    -4.671000000    -2.453000000     7.134000000
C    -3.800000000    -3.116000000     5.301000000
H    -4.779000000    -3.300000000     4.865000000
C    -2.651000000    -3.337000000     4.557000000
O    -2.709000000    -3.863000000     3.303000000
C    -3.436000000    -3.181000000     2.366000000
C    -4.349000000    -3.958000000     1.657000000
H    -4.396000000    -5.044000000     1.691000000
C    -5.133000000    -3.360000000     0.741000000
O    -5.960000000    -4.127000000    -0.096000000
C    -5.584000000    -4.239000000    -1.428000000
C    -6.495000000    -3.859000000    -2.408000000
H    -7.518000000    -3.684000000    -2.085000000
C    -6.180000000    -3.877000000    -3.716000000
H    -6.962000000    -3.728000000    -4.456000000
C    -4.847000000    -4.087000000    -4.158000000
H    -4.749000000    -4.161000000    -5.238000000
C    -3.849000000    -4.261000000    -3.183000000
C    -4.215000000    -4.335000000    -1.806000000
H    -3.457000000    -4.608000000    -1.077000000
O    -2.397000000    -7.213000000     0.728000000
H    -1.762000000    -7.919000000     0.848000000
H    -1.863000000    -6.436000000     0.567000000
O     1.002000000    -7.373000000     1.666000000
H     0.577000000    -7.502000000     0.817000000
H     1.163000000    -6.430000000     1.711000000
O    -1.769000000    -7.711000000     6.387000000
H    -1.412000000    -7.354000000     5.573000000
H    -2.527000000    -8.225000000     6.110000000
O    -0.228000000    -8.884000000    -0.487000000
H    -0.612000000    -8.401000000    -1.218000000
H     0.424000000    -9.455000000    -0.894000000
O     2.323000000    -5.955000000    -3.488000000
H     2.389000000    -6.858000000    -3.798000000
H     1.592000000    -5.967000000    -2.870000000
O     3.219000000    -4.295000000    -1.317000000
H     2.456000000    -4.666000000    -1.760000000
H     3.071000000    -3.350000000    -1.336000000
O     5.314000000    -5.715000000     2.371000000
H     4.403000000    -5.514000000     2.156000000
H     5.537000000    -5.097000000     3.068000000
O     1.980000000    -1.792000000    -1.140000000
H     1.589000000    -1.569000000    -1.985000000
H     1.498000000    -1.261000000    -0.505000000
O     1.249000000    -5.475000000     4.891000000
H     2.014000000    -6.040000000     4.784000000
H     1.215000000    -4.963000000     4.083000000
O    -1.481000000    -7.598000000    -2.618000000
H    -2.385000000    -7.630000000    -2.306000000
H    -1.539000000    -7.184000000    -3.479000000
O     0.541000000    -6.110000000    -1.374000000
H     0.143000000    -5.528000000    -0.727000000
H    -0.107000000    -6.802000000    -1.506000000
O     3.028000000    -5.052000000     1.314000000
H     2.207000000    -4.679000000     1.633000000
H     2.982000000    -4.954000000     0.363000000
O    -5.015000000    -8.181000000     1.248000000
H    -4.404000000    -8.167000000     1.984000000
H    -4.651000000    -7.553000000     0.623000000
O    -3.683000000    -6.637000000     3.937000000
H    -3.722000000    -7.277000000     4.648000000
H    -2.776000000    -6.330000000     3.940000000
O     3.371000000    -8.443000000     2.434000000
H     2.551000000    -7.983000000     2.254000000
H     3.778000000    -7.940000000     3.139000000
O    -1.032000000    -6.426000000     3.926000000
H    -0.534000000    -5.714000000     4.329000000
H    -0.819000000    -6.370000000     2.995000000
O     3.594000000    -6.844000000     4.891000000
H     4.358000000    -6.476000000     5.336000000
H     3.273000000    -7.521000000     5.486000000
O     6.051000000    -5.089000000    -0.091000000
H     5.371000000    -4.702000000    -0.642000000
H     5.613000000    -5.270000000     0.740000000
O    -0.679000000    -9.413000000     3.264000000
H    -0.931000000    -8.592000000     3.688000000
H    -0.302000000    -9.143000000     2.427000000
