201
-1241.43583
C     4.953000000    -0.002000000    -0.156000000
H     4.912000000     0.552000000     0.779000000
C     4.418000000     0.590000000    -1.309000000
C     4.568000000    -0.106000000    -2.520000000
H     4.171000000     0.320000000    -3.438000000
C     3.608000000     1.937000000    -1.294000000
O     4.001000000     2.992000000    -0.324000000
H     2.587000000     1.649000000    -1.002000000
O     3.577000000     2.518000000    -2.601000000
C     2.366000000     2.936000000    -3.039000000
C     1.642000000     2.037000000    -3.904000000
H     2.223000000     1.201000000    -4.285000000
C     0.306000000     2.256000000    -4.106000000
O    -0.389000000     1.271000000    -4.722000000
C    -0.389000000     3.294000000    -3.581000000
C    -1.802000000     3.523000000    -3.874000000
H    -2.000000000     4.594000000    -3.945000000
C    -2.770000000     2.757000000    -2.939000000
C    -3.128000000     3.391000000    -1.756000000
H    -2.669000000     4.350000000    -1.529000000
H    -1.932000000     3.067000000    -4.859000000
C     0.337000000     4.266000000    -2.817000000
H    -0.208000000     5.079000000    -2.344000000
C     1.672000000     4.027000000    -2.532000000
C     2.201000000     4.925000000    -1.391000000
H     1.777000000     5.920000000    -1.539000000
H     3.265000000     5.069000000    -1.590000000
C     2.035000000     4.413000000    -0.053000000
C     0.982000000     4.875000000     0.754000000
H     0.279000000     5.604000000     0.359000000
C     2.950000000     3.457000000     0.479000000
C     2.746000000     2.930000000     1.738000000
H     3.458000000     2.180000000     2.072000000
C     1.723000000     3.436000000     2.513000000
O     1.554000000     2.796000000     3.704000000
C     0.543000000     1.703000000     3.862000000
C     1.099000000     0.549000000     4.738000000
C     0.234000000    -0.081000000     5.607000000
H    -0.764000000     0.308000000     5.791000000
C     2.432000000     0.053000000     4.614000000
H     3.073000000     0.450000000     3.830000000
O    -0.634000000     2.301000000     4.511000000
H     0.291000000     1.346000000     2.852000000
C     0.801000000     4.433000000     2.044000000
C    -0.347000000     4.755000000     2.984000000
H    -0.676000000     5.778000000     2.788000000
H     0.204000000     4.766000000     3.927000000
C    -1.561000000     3.789000000     2.876000000
C    -2.550000000     4.109000000     1.982000000
H    -2.413000000     4.985000000     1.352000000
C    -1.655000000     2.626000000     3.677000000
C    -2.728000000     1.770000000     3.498000000
H    -2.668000000     0.836000000     4.051000000
C    -3.564000000     1.954000000     2.399000000
O    -4.484000000     0.924000000     2.166000000
C    -4.147000000     0.137000000     0.992000000
C    -4.329000000    -1.330000000     1.266000000
C    -3.825000000    -1.831000000     2.527000000
H    -3.360000000    -1.159000000     3.244000000
C    -4.747000000    -2.283000000     0.361000000
H    -5.044000000    -1.970000000    -0.637000000
O    -5.002000000     0.678000000    -0.090000000
H    -3.073000000     0.211000000     0.768000000
C    -3.489000000     3.154000000     1.646000000
C    -4.389000000     3.453000000     0.504000000
H    -4.449000000     4.524000000     0.297000000
H    -5.412000000     3.104000000     0.658000000
C    -3.912000000     2.703000000    -0.815000000
C    -4.311000000     1.347000000    -1.017000000
C    -3.922000000     0.736000000    -2.171000000
H    -4.269000000    -0.261000000    -2.433000000
C    -3.147000000     1.410000000    -3.075000000
O    -2.511000000     0.692000000    -4.066000000
C    -1.110000000     0.342000000    -4.011000000
H    -0.830000000     0.437000000    -2.952000000
C    -0.809000000    -1.044000000    -4.474000000
C     0.315000000    -1.433000000    -5.275000000
H     1.082000000    -0.723000000    -5.573000000
C    -1.659000000    -2.048000000    -3.996000000
H    -2.389000000    -1.762000000    -3.243000000
C    -1.534000000    -3.372000000    -4.437000000
O    -2.261000000    -4.385000000    -3.823000000
C    -0.407000000    -3.725000000    -5.142000000
H    -0.327000000    -4.769000000    -5.434000000
C     0.507000000    -2.809000000    -5.608000000
O     1.569000000    -3.043000000    -6.479000000
C     2.787000000    -2.430000000    -6.284000000
C     3.374000000    -2.284000000    -5.048000000
H     2.924000000    -2.596000000    -4.109000000
C     3.495000000    -1.981000000    -7.370000000
H     3.049000000    -2.118000000    -8.352000000
C     4.790000000    -1.514000000    -7.281000000
H     5.357000000    -1.353000000    -8.194000000
C     5.392000000    -1.435000000    -6.066000000
H     6.457000000    -1.234000000    -5.985000000
C     4.673000000    -1.780000000    -4.926000000
O     5.424000000    -2.045000000    -3.796000000
C     5.254000000    -1.350000000    -2.604000000
C     5.699000000    -1.886000000    -1.435000000
H     6.169000000    -2.862000000    -1.517000000
C     5.630000000    -1.253000000    -0.174000000
O     6.097000000    -1.866000000     0.996000000
C     6.022000000    -1.416000000     2.302000000
C     5.062000000    -1.761000000     3.169000000
H     4.261000000    -2.430000000     2.863000000
C     7.087000000    -0.534000000     2.672000000
H     7.862000000    -0.282000000     1.953000000
C     7.086000000    -0.100000000     3.979000000
H     7.894000000     0.561000000     4.282000000
C     6.105000000    -0.460000000     4.888000000
H     6.275000000    -0.062000000     5.885000000
C     5.122000000    -1.304000000     4.500000000
O     4.143000000    -1.635000000     5.376000000
C     2.860000000    -1.023000000     5.490000000
C     1.945000000    -1.561000000     6.365000000
H     2.168000000    -2.422000000     6.990000000
C     0.648000000    -1.101000000     6.390000000
O    -0.255000000    -1.696000000     7.192000000
C    -1.570000000    -2.082000000     6.808000000
C    -1.786000000    -2.614000000     5.537000000
H    -0.970000000    -2.982000000     4.921000000
C    -2.636000000    -1.639000000     7.611000000
H    -2.584000000    -1.111000000     8.560000000
C    -3.993000000    -1.910000000     7.150000000
H    -4.789000000    -1.560000000     7.802000000
C    -4.208000000    -2.589000000     5.928000000
H    -5.218000000    -2.829000000     5.606000000
C    -3.102000000    -2.952000000     5.154000000
O    -3.316000000    -3.671000000     3.978000000
C    -3.895000000    -3.151000000     2.843000000
C    -4.405000000    -4.010000000     1.922000000
H    -4.437000000    -5.064000000     2.188000000
C    -4.785000000    -3.666000000     0.642000000
O    -5.271000000    -4.510000000    -0.199000000
C    -5.044000000    -4.424000000    -1.536000000
C    -6.142000000    -4.362000000    -2.395000000
H    -7.119000000    -4.389000000    -1.920000000
C    -5.962000000    -4.204000000    -3.788000000
H    -6.741000000    -4.027000000    -4.525000000
C    -4.636000000    -4.159000000    -4.276000000
H    -4.510000000    -3.999000000    -5.344000000
C    -3.568000000    -4.268000000    -3.384000000
C    -3.727000000    -4.455000000    -2.032000000
H    -2.860000000    -4.553000000    -1.384000000
O    -2.233000000    -7.244000000    -0.891000000
H    -1.683000000    -7.985000000    -1.142000000
H    -1.613000000    -6.546000000    -0.681000000
O     0.769000000    -7.836000000     0.701000000
H     0.388000000    -8.215000000    -0.091000000
H     0.526000000    -6.911000000     0.665000000
O     0.026000000    -9.005000000    -2.154000000
H     0.668000000    -9.628000000    -1.814000000
H    -0.329000000    -9.430000000    -2.935000000
O     0.384000000    -4.988000000     6.771000000
H    -0.261000000    -5.685000000     6.655000000
H     0.763000000    -4.865000000     5.901000000
O     2.718000000    -6.292000000    -4.374000000
H     2.259000000    -7.096000000    -4.619000000
H     2.385000000    -6.084000000    -3.501000000
O     3.538000000    -5.153000000    -0.837000000
H     2.922000000    -5.830000000    -1.117000000
H     3.176000000    -4.340000000    -1.190000000
O     2.003000000    -3.161000000    -1.708000000
H     1.139000000    -3.453000000    -1.419000000
H     2.221000000    -2.439000000    -1.120000000
O     1.355000000    -4.697000000     4.317000000
H     2.057000000    -4.695000000     3.666000000
H     0.559000000    -4.857000000     3.810000000
O    -1.380000000    -7.163000000    -4.205000000
H    -1.672000000    -6.267000000    -4.039000000
H    -1.950000000    -7.706000000    -3.660000000
O     1.428000000    -6.336000000    -2.181000000
H     0.782000000    -5.871000000    -1.649000000
H     0.960000000    -7.105000000    -2.507000000
O     3.673000000    -6.636000000     5.062000000
H     3.278000000    -6.058000000     5.714000000
H     3.003000000    -7.298000000     4.891000000
O     3.272000000    -5.001000000     1.890000000
H     2.351000000    -5.260000000     1.875000000
H     3.506000000    -4.899000000     0.968000000
O    -4.127000000    -7.926000000     1.310000000
H    -3.885000000    -7.870000000     2.235000000
H    -3.312000000    -7.754000000     0.839000000
O    -3.345000000    -8.043000000     3.778000000
H    -3.778000000    -7.706000000     4.562000000
H    -2.575000000    -7.485000000     3.670000000
O     5.176000000    -7.130000000     2.815000000
H     5.412000000    -6.314000000     2.374000000
H     4.556000000    -6.865000000     3.495000000
O     2.731000000    -8.359000000     2.632000000
H     2.156000000    -8.214000000     1.881000000
H     3.541000000    -7.902000000     2.405000000
O    -1.105000000    -6.538000000     3.515000000
H    -0.390000000    -7.005000000     3.948000000
H    -0.683000000    -6.071000000     2.794000000
O     5.688000000    -6.710000000    -1.235000000
H     4.946000000    -6.287000000    -0.803000000
H     5.902000000    -7.453000000    -0.671000000
O     0.680000000    -8.380000000     4.349000000
H     1.435000000    -8.284000000     3.769000000
H     0.308000000    -9.231000000     4.119000000
