201
-1264.17159
C     4.736000000    -1.492000000    -1.378000000
H     4.993000000    -1.000000000    -0.443000000
C     4.089000000    -0.726000000    -2.427000000
C     3.773000000    -1.392000000    -3.606000000
H     3.218000000    -0.892000000    -4.395000000
C     3.836000000     0.730000000    -2.191000000
O     4.789000000     1.441000000    -1.324000000
H     2.892000000     0.786000000    -1.628000000
O     3.677000000     1.503000000    -3.415000000
C     2.566000000     2.287000000    -3.517000000
C     1.453000000     1.740000000    -4.085000000
H     1.566000000     0.745000000    -4.506000000
C     0.256000000     2.375000000    -4.062000000
O    -0.862000000     1.728000000    -4.502000000
C     0.067000000     3.658000000    -3.507000000
C    -1.256000000     4.338000000    -3.416000000
H    -1.017000000     5.400000000    -3.499000000
C    -2.108000000     3.885000000    -2.156000000
C    -2.065000000     4.601000000    -0.967000000
H    -1.459000000     5.503000000    -0.942000000
H    -1.872000000     4.213000000    -4.310000000
C     1.217000000     4.214000000    -2.900000000
H     1.159000000     5.173000000    -2.391000000
C     2.452000000     3.518000000    -2.849000000
C     3.603000000     3.992000000    -1.900000000
H     3.608000000     5.083000000    -1.869000000
H     4.519000000     3.685000000    -2.410000000
C     3.598000000     3.446000000    -0.495000000
C     2.847000000     3.997000000     0.531000000
H     2.286000000     4.902000000     0.313000000
C     4.268000000     2.223000000    -0.290000000
C     4.283000000     1.626000000     1.004000000
H     4.767000000     0.661000000     1.130000000
C     3.557000000     2.199000000     2.050000000
O     3.467000000     1.633000000     3.277000000
C     2.221000000     0.953000000     3.576000000
C     2.422000000    -0.480000000     4.250000000
C     1.387000000    -1.063000000     5.003000000
H     0.389000000    -0.666000000     5.167000000
C     3.562000000    -1.241000000     3.918000000
H     4.260000000    -0.816000000     3.201000000
O     1.495000000     1.884000000     4.423000000
H     1.705000000     0.967000000     2.605000000
C     2.888000000     3.423000000     1.808000000
C     2.250000000     4.154000000     2.939000000
H     2.307000000     5.228000000     2.751000000
H     2.714000000     4.026000000     3.919000000
C     0.859000000     3.738000000     3.064000000
C    -0.146000000     4.421000000     2.396000000
H     0.216000000     5.291000000     1.854000000
C     0.540000000     2.664000000     3.823000000
C    -0.770000000     2.191000000     3.823000000
H    -1.010000000     1.302000000     4.402000000
C    -1.768000000     2.751000000     2.974000000
O    -2.991000000     2.117000000     3.065000000
C    -3.411000000     1.465000000     1.836000000
C    -4.128000000     0.122000000     2.046000000
C    -3.636000000    -0.670000000     3.101000000
H    -2.823000000    -0.243000000     3.682000000
C    -5.164000000    -0.412000000     1.237000000
H    -5.651000000     0.163000000     0.454000000
O    -4.221000000     2.364000000     1.099000000
H    -2.528000000     1.162000000     1.255000000
C    -1.431000000     3.877000000     2.304000000
C    -2.470000000     4.579000000     1.499000000
H    -2.181000000     5.626000000     1.383000000
H    -3.395000000     4.501000000     2.074000000
C    -2.725000000     4.052000000     0.132000000
C    -3.596000000     2.984000000    -0.014000000
C    -3.667000000     2.269000000    -1.178000000
H    -4.325000000     1.404000000    -1.211000000
C    -2.853000000     2.714000000    -2.210000000
O    -2.857000000     2.066000000    -3.356000000
C    -1.778000000     1.155000000    -3.587000000
H    -1.284000000     1.104000000    -2.605000000
C    -2.336000000    -0.187000000    -3.905000000
C    -1.449000000    -1.253000000    -4.093000000
H    -0.372000000    -1.105000000    -4.108000000
C    -3.713000000    -0.452000000    -3.876000000
H    -4.428000000     0.364000000    -3.826000000
C    -4.162000000    -1.763000000    -3.922000000
O    -5.517000000    -1.990000000    -3.883000000
C    -3.252000000    -2.827000000    -4.090000000
H    -3.664000000    -3.820000000    -4.252000000
C    -1.928000000    -2.529000000    -4.276000000
O    -1.090000000    -3.543000000    -4.458000000
C     0.108000000    -3.420000000    -5.241000000
C     1.357000000    -3.361000000    -4.571000000
H     1.357000000    -3.316000000    -3.485000000
C    -0.028000000    -3.416000000    -6.642000000
H    -1.059000000    -3.382000000    -6.986000000
C     1.127000000    -3.318000000    -7.399000000
H     0.998000000    -3.189000000    -8.470000000
C     2.441000000    -3.305000000    -6.801000000
H     3.381000000    -3.276000000    -7.345000000
C     2.530000000    -3.263000000    -5.430000000
O     3.789000000    -3.376000000    -4.919000000
C     4.092000000    -2.724000000    -3.726000000
C     4.740000000    -3.442000000    -2.733000000
H     4.936000000    -4.511000000    -2.750000000
C     4.978000000    -2.821000000    -1.512000000
O     5.549000000    -3.596000000    -0.540000000
C     5.928000000    -3.101000000     0.643000000
C     5.144000000    -3.307000000     1.821000000
H     4.117000000    -3.640000000     1.700000000
C     7.195000000    -2.595000000     0.711000000
H     7.852000000    -2.524000000    -0.151000000
C     7.750000000    -2.237000000     1.972000000
H     8.719000000    -1.753000000     2.066000000
C     7.001000000    -2.492000000     3.131000000
H     7.284000000    -2.043000000     4.079000000
C     5.689000000    -2.981000000     3.049000000
O     4.938000000    -3.271000000     4.211000000
C     3.724000000    -2.546000000     4.404000000
C     2.778000000    -3.060000000     5.280000000
H     2.919000000    -4.067000000     5.664000000
C     1.568000000    -2.368000000     5.553000000
O     0.649000000    -2.988000000     6.342000000
C    -0.701000000    -2.574000000     6.406000000
C    -1.520000000    -2.823000000     5.338000000
H    -1.189000000    -3.395000000     4.475000000
C    -1.108000000    -1.933000000     7.527000000
H    -0.403000000    -1.827000000     8.347000000
C    -2.403000000    -1.502000000     7.619000000
H    -2.689000000    -1.033000000     8.557000000
C    -3.227000000    -1.580000000     6.436000000
H    -4.202000000    -1.108000000     6.346000000
C    -2.815000000    -2.267000000     5.338000000
O    -3.746000000    -2.660000000     4.403000000
C    -4.164000000    -1.911000000     3.368000000
C    -5.201000000    -2.386000000     2.586000000
H    -5.634000000    -3.347000000     2.850000000
C    -5.711000000    -1.631000000     1.519000000
O    -6.773000000    -2.193000000     0.757000000
C    -6.980000000    -1.826000000    -0.553000000
C    -8.242000000    -1.373000000    -0.811000000
H    -9.038000000    -1.182000000    -0.096000000
C    -8.584000000    -1.142000000    -2.157000000
H    -9.575000000    -0.763000000    -2.393000000
C    -7.663000000    -1.353000000    -3.176000000
H    -7.927000000    -1.223000000    -4.223000000
C    -6.359000000    -1.734000000    -2.830000000
C    -6.010000000    -1.978000000    -1.513000000
H    -5.039000000    -2.379000000    -1.233000000
O    -0.529000000    -8.574000000     0.740000000
H    -0.195000000    -7.677000000     0.729000000
H    -0.042000000    -9.019000000     0.046000000
O     3.081000000    -6.635000000    -0.952000000
H     2.504000000    -7.399000000    -0.942000000
H     2.492000000    -5.889000000    -0.836000000
O     2.653000000    -6.466000000    -3.874000000
H     3.024000000    -6.287000000    -3.010000000
H     3.331000000    -6.186000000    -4.489000000
O     0.425000000    -7.496000000    -2.023000000
H     1.091000000    -7.171000000    -2.628000000
H    -0.074000000    -6.718000000    -1.775000000
O     4.744000000    -9.386000000     0.216000000
H     4.022000000    -9.020000000    -0.294000000
H     4.802000000   -10.298000000    -0.071000000
O    -1.731000000    -7.167000000     3.735000000
H    -2.254000000    -6.882000000     2.986000000
H    -0.824000000    -7.055000000     3.450000000
O    -5.089000000    -6.161000000    -2.668000000
H    -4.955000000    -5.551000000    -1.943000000
H    -4.209000000    -6.327000000    -3.007000000
O    -3.105000000    -8.336000000     0.007000000
H    -3.033000000    -7.716000000    -0.719000000
H    -2.227000000    -8.362000000     0.387000000
O    -2.399000000    -5.896000000    -3.013000000
H    -1.837000000    -5.753000000    -3.775000000
H    -1.928000000    -5.485000000    -2.288000000
O     4.479000000    -6.699000000     1.791000000
H     4.352000000    -6.478000000     0.868000000
H     5.381000000    -6.438000000     1.978000000
O     2.458000000    -6.726000000     3.724000000
H     2.890000000    -6.667000000     4.576000000
H     3.015000000    -6.215000000     3.137000000
O    -4.163000000    -5.407000000     3.192000000
H    -4.429000000    -6.326000000     3.180000000
H    -3.527000000    -5.332000000     2.481000000
O    -2.294000000    -5.760000000     1.372000000
H    -2.297000000    -5.414000000     0.479000000
H    -1.399000000    -6.072000000     1.504000000
O    -4.641000000    -7.992000000     2.225000000
H    -3.928000000    -8.207000000     1.625000000
H    -5.436000000    -8.122000000     1.708000000
O     5.945000000    -6.302000000    -1.296000000
H     6.102000000    -5.363000000    -1.192000000
H     5.000000000    -6.373000000    -1.430000000
O     0.295000000    -5.981000000     1.975000000
H     1.050000000    -6.189000000     2.525000000
H     0.657000000    -5.463000000     1.256000000
O     1.125000000   -10.436000000    -0.640000000
H     1.434000000   -10.838000000     0.171000000
H     1.868000000   -10.505000000    -1.240000000
O    -5.226000000    -4.808000000    -0.380000000
H    -4.979000000    -4.633000000     0.528000000
H    -6.163000000    -5.001000000    -0.340000000
O    -0.969000000    -9.586000000    -3.583000000
H    -1.885000000    -9.514000000    -3.314000000
H    -0.495000000    -9.019000000    -2.975000000
