201
-1255.47257
C     5.388000000    -1.433000000    -0.961000000
H     5.747000000    -0.842000000    -0.123000000
C     4.335000000    -0.994000000    -1.799000000
C     3.740000000    -1.889000000    -2.658000000
H     2.934000000    -1.502000000    -3.276000000
C     3.857000000     0.414000000    -1.733000000
O     4.819000000     1.254000000    -0.981000000
H     2.883000000     0.331000000    -1.230000000
O     3.688000000     1.057000000    -3.043000000
C     2.659000000     1.911000000    -3.277000000
C     1.564000000     1.369000000    -3.958000000
H     1.676000000     0.346000000    -4.308000000
C     0.352000000     2.098000000    -4.141000000
O    -0.707000000     1.458000000    -4.724000000
C     0.283000000     3.405000000    -3.584000000
C    -0.953000000     4.286000000    -3.528000000
H    -0.799000000     5.364000000    -3.443000000
C    -2.003000000     3.904000000    -2.512000000
C    -2.041000000     4.497000000    -1.257000000
H    -1.245000000     5.209000000    -1.060000000
H    -1.411000000     4.282000000    -4.519000000
C     1.394000000     3.933000000    -2.833000000
H     1.330000000     4.955000000    -2.469000000
C     2.559000000     3.172000000    -2.766000000
C     3.635000000     3.765000000    -1.911000000
H     3.576000000     4.852000000    -1.994000000
H     4.592000000     3.442000000    -2.327000000
C     3.573000000     3.253000000    -0.442000000
C     2.745000000     3.889000000     0.530000000
H     2.153000000     4.764000000     0.276000000
C     4.231000000     2.081000000    -0.048000000
C     4.124000000     1.638000000     1.307000000
H     4.464000000     0.666000000     1.654000000
C     3.430000000     2.352000000     2.224000000
O     3.184000000     1.771000000     3.397000000
C     1.953000000     1.074000000     3.563000000
C     2.164000000    -0.338000000     4.181000000
C     1.065000000    -1.003000000     4.786000000
H     0.174000000    -0.380000000     4.797000000
C     3.362000000    -1.056000000     4.013000000
H     4.239000000    -0.675000000     3.496000000
O     1.071000000     1.911000000     4.378000000
H     1.495000000     0.950000000     2.571000000
C     2.805000000     3.512000000     1.923000000
C     1.919000000     4.275000000     2.908000000
H     1.959000000     5.356000000     2.760000000
H     2.343000000     4.152000000     3.907000000
C     0.485000000     3.772000000     2.899000000
C    -0.402000000     4.342000000     1.935000000
H    -0.086000000     5.125000000     1.250000000
C     0.115000000     2.655000000     3.708000000
C    -1.204000000     2.191000000     3.645000000
H    -1.612000000     1.326000000     4.163000000
C    -2.034000000     2.897000000     2.820000000
O    -3.300000000     2.288000000     2.706000000
C    -3.411000000     1.583000000     1.520000000
C    -4.095000000     0.186000000     1.725000000
C    -3.732000000    -0.611000000     2.845000000
H    -2.988000000    -0.159000000     3.496000000
C    -5.091000000    -0.274000000     0.876000000
H    -5.432000000     0.381000000     0.078000000
O    -4.276000000     2.303000000     0.585000000
H    -2.467000000     1.397000000     0.987000000
C    -1.750000000     4.002000000     1.974000000
C    -2.867000000     4.718000000     1.170000000
H    -2.572000000     5.765000000     1.077000000
H    -3.836000000     4.721000000     1.674000000
C    -2.940000000     4.096000000    -0.223000000
C    -3.727000000     2.943000000    -0.468000000
C    -3.680000000     2.300000000    -1.706000000
H    -4.241000000     1.372000000    -1.776000000
C    -2.821000000     2.794000000    -2.733000000
O    -2.784000000     2.135000000    -3.928000000
C    -1.845000000     1.092000000    -3.932000000
H    -1.359000000     0.977000000    -2.952000000
C    -2.379000000    -0.235000000    -4.332000000
C    -1.485000000    -1.281000000    -4.421000000
H    -0.403000000    -1.307000000    -4.321000000
C    -3.698000000    -0.494000000    -4.417000000
H    -4.410000000     0.318000000    -4.293000000
C    -4.191000000    -1.774000000    -4.675000000
O    -5.502000000    -1.966000000    -4.564000000
C    -3.335000000    -2.824000000    -4.670000000
H    -3.674000000    -3.855000000    -4.611000000
C    -1.988000000    -2.582000000    -4.624000000
O    -1.194000000    -3.671000000    -4.375000000
C     0.106000000    -3.781000000    -4.844000000
C     1.145000000    -3.822000000    -3.944000000
H     0.965000000    -3.967000000    -2.882000000
C     0.423000000    -3.725000000    -6.202000000
H    -0.426000000    -3.688000000    -6.880000000
C     1.734000000    -3.624000000    -6.706000000
H     1.940000000    -3.467000000    -7.762000000
C     2.767000000    -3.670000000    -5.763000000
H     3.801000000    -3.720000000    -6.092000000
C     2.506000000    -3.835000000    -4.376000000
O     3.551000000    -4.159000000    -3.495000000
C     4.073000000    -3.267000000    -2.629000000
C     5.175000000    -3.626000000    -1.842000000
H     5.638000000    -4.603000000    -1.948000000
C     5.714000000    -2.773000000    -0.928000000
O     6.668000000    -3.253000000    -0.030000000
C     6.695000000    -2.818000000     1.321000000
C     5.609000000    -3.029000000     2.153000000
H     4.714000000    -3.554000000     1.830000000
C     7.860000000    -2.195000000     1.759000000
H     8.777000000    -2.031000000     1.200000000
C     7.915000000    -1.774000000     3.081000000
H     8.875000000    -1.426000000     3.453000000
C     6.889000000    -2.063000000     3.939000000
H     7.000000000    -1.802000000     4.988000000
C     5.683000000    -2.651000000     3.465000000
O     4.693000000    -3.045000000     4.404000000
C     3.539000000    -2.305000000     4.617000000
C     2.445000000    -2.885000000     5.314000000
H     2.532000000    -3.893000000     5.713000000
C     1.274000000    -2.217000000     5.483000000
O     0.274000000    -2.964000000     6.187000000
C    -1.071000000    -2.502000000     6.225000000
C    -1.917000000    -2.832000000     5.184000000
H    -1.478000000    -3.582000000     4.531000000
C    -1.441000000    -1.633000000     7.215000000
H    -0.745000000    -1.381000000     8.011000000
C    -2.723000000    -1.072000000     7.260000000
H    -3.105000000    -0.364000000     7.992000000
C    -3.583000000    -1.353000000     6.209000000
H    -4.567000000    -0.899000000     6.116000000
C    -3.209000000    -2.309000000     5.181000000
O    -4.048000000    -2.673000000     4.132000000
C    -4.366000000    -1.838000000     3.096000000
C    -5.229000000    -2.392000000     2.140000000
H    -5.785000000    -3.317000000     2.276000000
C    -5.604000000    -1.594000000     1.047000000
O    -6.461000000    -2.157000000     0.138000000
C    -6.733000000    -1.664000000    -1.167000000
C    -7.874000000    -0.930000000    -1.360000000
H    -8.439000000    -0.570000000    -0.504000000
C    -8.298000000    -0.635000000    -2.673000000
H    -9.225000000    -0.113000000    -2.893000000
C    -7.517000000    -0.956000000    -3.793000000
H    -7.804000000    -0.853000000    -4.836000000
C    -6.344000000    -1.604000000    -3.552000000
C    -5.967000000    -2.015000000    -2.254000000
H    -5.088000000    -2.646000000    -2.155000000
O     2.141000000    -6.093000000     0.213000000
H     1.394000000    -5.494000000     0.211000000
H     1.793000000    -6.910000000    -0.143000000
O     3.434000000    -6.256000000     3.709000000
H     3.557000000    -6.674000000     2.857000000
H     2.748000000    -6.772000000     4.132000000
O    -0.282000000    -8.328000000    -3.064000000
H    -0.509000000    -9.214000000    -3.347000000
H    -1.125000000    -7.889000000    -2.952000000
O     0.052000000    -5.866000000     5.473000000
H     0.216000000    -4.924000000     5.520000000
H     0.245000000    -6.098000000     4.564000000
O     4.744000000    -7.116000000    -2.804000000
H     4.837000000    -6.702000000    -1.946000000
H     4.013000000    -6.655000000    -3.214000000
O    -1.137000000   -10.201000000     0.311000000
H    -0.905000000    -9.316000000     0.030000000
H    -1.890000000   -10.435000000    -0.232000000
O     2.104000000    -7.139000000    -3.479000000
H     1.471000000    -7.853000000    -3.552000000
H     1.681000000    -6.500000000    -2.907000000
O    -1.688000000    -6.992000000    -5.630000000
H    -1.756000000    -6.271000000    -5.005000000
H    -1.771000000    -7.781000000    -5.096000000
O     0.378000000    -4.667000000     2.896000000
H     1.266000000    -4.872000000     3.190000000
H     0.448000000    -4.614000000     1.943000000
O    -4.869000000    -5.871000000     3.234000000
H    -5.030000000    -5.420000000     4.062000000
H    -4.054000000    -5.489000000     2.908000000
O    -0.938000000    -7.529000000     0.321000000
H    -0.626000000    -6.767000000    -0.168000000
H    -1.889000000    -7.426000000     0.343000000
O     0.459000000    -7.718000000     3.176000000
H    -0.402000000    -7.848000000     3.574000000
H     0.269000000    -7.490000000     2.266000000
O    -3.740000000    -7.571000000    -0.250000000
H    -4.369000000    -7.749000000     0.450000000
H    -3.461000000    -8.438000000    -0.545000000
O    -6.370000000    -5.612000000    -3.166000000
H    -7.189000000    -5.221000000    -2.863000000
H    -5.707000000    -5.277000000    -2.563000000
O     4.922000000    -6.340000000     0.033000000
H     4.000000000    -6.087000000    -0.003000000
H     4.916000000    -7.210000000     0.433000000
O    -3.170000000    -9.793000000    -1.988000000
H    -2.842000000    -9.804000000    -2.887000000
H    -4.043000000   -10.181000000    -2.047000000
O    -2.374000000    -6.561000000    -2.821000000
H    -2.139000000    -5.874000000    -2.198000000
H    -3.243000000    -6.850000000    -2.542000000
O    -2.504000000    -5.536000000     2.087000000
H    -2.654000000    -5.493000000     1.143000000
H    -1.572000000    -5.342000000     2.191000000
O    -4.654000000    -5.013000000    -1.146000000
H    -3.779000000    -4.627000000    -1.190000000
H    -4.570000000    -5.726000000    -0.513000000
