201
-1242.38026
C     5.188000000    -1.501000000    -0.587000000
H     5.417000000    -0.919000000     0.302000000
C     4.547000000    -0.960000000    -1.732000000
C     4.130000000    -1.807000000    -2.772000000
H     3.626000000    -1.420000000    -3.654000000
C     4.037000000     0.541000000    -1.726000000
O     4.971000000     1.408000000    -1.037000000
H     3.099000000     0.494000000    -1.154000000
O     3.789000000     1.055000000    -3.116000000
C     2.785000000     1.974000000    -3.325000000
C     1.665000000     1.407000000    -3.968000000
H     1.662000000     0.354000000    -4.237000000
C     0.452000000     1.978000000    -3.992000000
O    -0.678000000     1.341000000    -4.575000000
C     0.318000000     3.294000000    -3.524000000
C    -0.961000000     4.092000000    -3.533000000
H    -0.737000000     5.161000000    -3.544000000
C    -1.972000000     3.689000000    -2.458000000
C    -1.914000000     4.465000000    -1.326000000
H    -1.175000000     5.261000000    -1.354000000
H    -1.537000000     3.936000000    -4.448000000
C     1.428000000     3.920000000    -2.952000000
H     1.278000000     4.913000000    -2.538000000
C     2.664000000     3.244000000    -2.765000000
C     3.854000000     3.889000000    -1.945000000
H     3.868000000     4.981000000    -1.958000000
H     4.792000000     3.601000000    -2.425000000
C     3.711000000     3.364000000    -0.511000000
C     2.969000000     4.047000000     0.498000000
H     2.434000000     4.984000000     0.364000000
C     4.380000000     2.230000000    -0.115000000
C     4.203000000     1.674000000     1.157000000
H     4.734000000     0.742000000     1.334000000
C     3.417000000     2.302000000     2.109000000
O     3.146000000     1.613000000     3.307000000
C     1.746000000     1.079000000     3.500000000
C     1.828000000    -0.335000000     4.092000000
C     0.605000000    -0.908000000     4.647000000
H    -0.267000000    -0.264000000     4.723000000
C     2.982000000    -1.122000000     4.053000000
H     3.845000000    -0.786000000     3.485000000
O     1.089000000     2.105000000     4.301000000
H     1.282000000     1.030000000     2.504000000
C     2.828000000     3.500000000     1.775000000
C     2.069000000     4.334000000     2.813000000
H     2.123000000     5.391000000     2.545000000
H     2.617000000     4.314000000     3.757000000
C     0.566000000     3.982000000     2.901000000
C    -0.337000000     4.690000000     2.080000000
H     0.061000000     5.573000000     1.586000000
C     0.150000000     2.891000000     3.603000000
C    -1.226000000     2.555000000     3.610000000
H    -1.528000000     1.653000000     4.137000000
C    -2.088000000     3.176000000     2.716000000
O    -3.313000000     2.632000000     2.578000000
C    -3.767000000     1.815000000     1.405000000
C    -4.584000000     0.587000000     1.729000000
C    -4.236000000    -0.215000000     2.825000000
H    -3.452000000     0.119000000     3.500000000
C    -5.501000000     0.124000000     0.814000000
H    -5.716000000     0.678000000    -0.096000000
O    -4.537000000     2.744000000     0.552000000
H    -2.888000000     1.454000000     0.851000000
C    -1.637000000     4.211000000     1.934000000
C    -2.529000000     4.980000000     0.944000000
H    -2.066000000     5.914000000     0.619000000
H    -3.423000000     5.297000000     1.485000000
C    -2.836000000     4.228000000    -0.336000000
C    -3.745000000     3.174000000    -0.465000000
C    -3.633000000     2.271000000    -1.480000000
H    -4.166000000     1.325000000    -1.533000000
C    -2.798000000     2.593000000    -2.545000000
O    -2.792000000     1.726000000    -3.620000000
C    -1.717000000     0.750000000    -3.746000000
H    -1.299000000     0.662000000    -2.732000000
C    -1.997000000    -0.679000000    -4.134000000
C    -0.980000000    -1.516000000    -4.621000000
H    -0.006000000    -1.134000000    -4.915000000
C    -3.230000000    -1.217000000    -3.813000000
H    -4.027000000    -0.603000000    -3.401000000
C    -3.443000000    -2.576000000    -3.922000000
O    -4.581000000    -3.203000000    -3.558000000
C    -2.410000000    -3.393000000    -4.426000000
H    -2.527000000    -4.443000000    -4.681000000
C    -1.174000000    -2.883000000    -4.694000000
O    -0.388000000    -3.763000000    -5.369000000
C     0.917000000    -3.690000000    -5.539000000
C     1.784000000    -4.036000000    -4.540000000
H     1.433000000    -4.403000000    -3.579000000
C     1.391000000    -3.308000000    -6.761000000
H     0.737000000    -2.938000000    -7.547000000
C     2.750000000    -3.278000000    -6.981000000
H     3.117000000    -2.956000000    -7.953000000
C     3.666000000    -3.476000000    -5.974000000
H     4.730000000    -3.346000000    -6.155000000
C     3.139000000    -3.838000000    -4.707000000
O     3.982000000    -4.091000000    -3.653000000
C     4.418000000    -3.196000000    -2.694000000
C     5.090000000    -3.623000000    -1.553000000
H     5.297000000    -4.687000000    -1.469000000
C     5.476000000    -2.826000000    -0.541000000
O     6.397000000    -3.245000000     0.480000000
C     6.241000000    -2.896000000     1.809000000
C     5.106000000    -3.218000000     2.513000000
H     4.274000000    -3.730000000     2.037000000
C     7.290000000    -2.251000000     2.373000000
H     8.198000000    -2.106000000     1.793000000
C     7.211000000    -1.757000000     3.737000000
H     8.085000000    -1.286000000     4.179000000
C     6.098000000    -2.107000000     4.492000000
H     5.981000000    -1.829000000     5.537000000
C     5.108000000    -2.899000000     3.882000000
O     4.028000000    -3.286000000     4.600000000
C     2.976000000    -2.400000000     4.641000000
C     1.832000000    -2.889000000     5.268000000
H     1.890000000    -3.885000000     5.699000000
C     0.673000000    -2.098000000     5.358000000
O    -0.335000000    -2.554000000     6.275000000
C    -1.563000000    -2.043000000     6.212000000
C    -2.478000000    -2.396000000     5.149000000
H    -2.123000000    -3.015000000     4.330000000
C    -2.095000000    -1.371000000     7.320000000
H    -1.462000000    -1.333000000     8.203000000
C    -3.351000000    -0.908000000     7.365000000
H    -3.736000000    -0.339000000     8.208000000
C    -4.219000000    -1.152000000     6.228000000
H    -5.274000000    -0.913000000     6.336000000
C    -3.771000000    -1.918000000     5.173000000
O    -4.551000000    -2.263000000     4.142000000
C    -4.835000000    -1.463000000     3.018000000
C    -5.755000000    -1.919000000     2.052000000
H    -6.239000000    -2.886000000     2.160000000
C    -6.048000000    -1.133000000     0.940000000
O    -7.082000000    -1.453000000     0.097000000
C    -6.982000000    -1.643000000    -1.267000000
C    -8.074000000    -1.398000000    -2.105000000
H    -9.005000000    -1.005000000    -1.705000000
C    -7.943000000    -1.612000000    -3.485000000
H    -8.706000000    -1.393000000    -4.227000000
C    -6.812000000    -2.237000000    -3.969000000
H    -6.656000000    -2.469000000    -5.020000000
C    -5.727000000    -2.531000000    -3.128000000
C    -5.853000000    -2.227000000    -1.734000000
H    -5.139000000    -2.679000000    -1.051000000
O    -4.331000000    -8.747000000    -0.681000000
H    -4.754000000    -8.050000000    -0.179000000
H    -3.648000000    -8.301000000    -1.183000000
O     0.409000000    -7.076000000     0.623000000
H     0.329000000    -6.370000000    -0.019000000
H     0.572000000    -7.860000000     0.097000000
O     1.854000000    -5.539000000     2.367000000
H     1.461000000    -6.267000000     1.885000000
H     1.266000000    -4.801000000     2.207000000
O     3.424000000    -8.205000000    -3.921000000
H     3.703000000    -7.787000000    -3.106000000
H     2.468000000    -8.168000000    -3.894000000
O     0.078000000    -9.194000000    -0.969000000
H    -0.683000000    -9.717000000    -1.220000000
H     0.725000000    -9.838000000    -0.678000000
O    -0.989000000    -5.515000000     4.366000000
H    -0.725000000    -6.185000000     3.735000000
H    -0.694000000    -4.691000000     3.978000000
O     3.530000000    -6.721000000    -1.560000000
H     3.522000000    -7.204000000    -0.734000000
H     2.608000000    -6.531000000    -1.736000000
O     0.593000000    -7.457000000    -3.093000000
H     0.151000000    -8.161000000    -2.618000000
H     0.362000000    -6.662000000    -2.612000000
O    -2.699000000    -6.683000000    -6.202000000
H    -1.962000000    -7.269000000    -6.371000000
H    -3.142000000    -7.068000000    -5.446000000
O     0.309000000    -6.577000000    -5.782000000
H     0.144000000    -5.647000000    -5.627000000
H     0.569000000    -6.919000000    -4.926000000
O    -0.531000000    -3.610000000     2.298000000
H    -0.442000000    -2.886000000     1.678000000
H    -1.206000000    -4.171000000     1.916000000
O    -2.175000000    -5.720000000     1.294000000
H    -2.218000000    -5.739000000     0.338000000
H    -1.971000000    -6.621000000     1.543000000
O    -2.560000000    -3.412000000    -7.645000000
H    -2.105000000    -3.533000000    -8.479000000
H    -1.860000000    -3.241000000    -7.014000000
O    -0.797000000    -7.961000000     2.904000000
H    -1.275000000    -8.642000000     2.432000000
H    -0.134000000    -7.659000000     2.283000000
O    -2.397000000    -9.682000000     1.306000000
H    -3.038000000    -9.396000000     0.655000000
H    -2.776000000   -10.477000000     1.682000000
O    -1.825000000    -9.991000000    -2.640000000
H    -1.368000000   -10.281000000    -3.430000000
H    -2.270000000    -9.186000000    -2.904000000
O    -2.312000000    -7.584000000    -3.455000000
H    -2.269000000    -6.664000000    -3.194000000
H    -1.463000000    -7.758000000    -3.861000000
O    -4.945000000    -5.607000000     1.814000000
H    -5.269000000    -5.756000000     0.926000000
H    -4.005000000    -5.465000000     1.705000000
O    -4.414000000    -5.808000000    -1.138000000
H    -3.648000000    -5.392000000    -1.533000000
H    -5.048000000    -5.871000000    -1.853000000
