201
-1276.05471
C     4.426000000    -1.602000000    -1.086000000
H     4.376000000    -1.394000000    -0.020000000
C     4.150000000    -0.705000000    -2.116000000
C     4.002000000    -1.175000000    -3.418000000
H     3.831000000    -0.549000000    -4.290000000
C     3.723000000     0.705000000    -1.779000000
O     4.612000000     1.307000000    -0.836000000
H     2.745000000     0.728000000    -1.275000000
O     3.692000000     1.538000000    -2.930000000
C     2.622000000     2.312000000    -3.151000000
C     1.497000000     1.785000000    -3.769000000
H     1.606000000     0.832000000    -4.282000000
C     0.310000000     2.530000000    -3.884000000
O    -0.819000000     1.988000000    -4.518000000
C     0.191000000     3.717000000    -3.146000000
C    -1.206000000     4.455000000    -3.052000000
H    -0.997000000     5.503000000    -2.827000000
C    -2.146000000     3.822000000    -2.014000000
C    -2.113000000     4.374000000    -0.739000000
H    -1.511000000     5.254000000    -0.529000000
H    -1.781000000     4.422000000    -3.979000000
C     1.215000000     4.125000000    -2.357000000
H     1.066000000     5.056000000    -1.817000000
C     2.472000000     3.523000000    -2.383000000
C     3.637000000     3.990000000    -1.501000000
H     3.767000000     5.068000000    -1.390000000
H     4.560000000     3.743000000    -2.031000000
C     3.614000000     3.378000000    -0.118000000
C     2.775000000     4.022000000     0.833000000
H     2.254000000     4.943000000     0.583000000
C     4.129000000     2.150000000     0.182000000
C     4.024000000     1.560000000     1.423000000
H     4.431000000     0.566000000     1.589000000
C     3.380000000     2.294000000     2.447000000
O     3.210000000     1.656000000     3.656000000
C     2.021000000     0.914000000     3.864000000
C     2.181000000    -0.407000000     4.637000000
C     1.188000000    -0.848000000     5.495000000
H     0.314000000    -0.257000000     5.755000000
C     3.281000000    -1.231000000     4.316000000
H     4.029000000    -0.928000000     3.588000000
O     1.033000000     1.739000000     4.538000000
H     1.499000000     0.693000000     2.921000000
C     2.743000000     3.541000000     2.112000000
C     1.859000000     4.170000000     3.182000000
H     1.918000000     5.260000000     3.165000000
H     2.270000000     3.994000000     4.178000000
C     0.422000000     3.603000000     3.114000000
C    -0.610000000     4.209000000     2.389000000
H    -0.394000000     5.099000000     1.803000000
C     0.052000000     2.435000000     3.865000000
C    -1.224000000     1.846000000     3.818000000
H    -1.550000000     0.984000000     4.395000000
C    -2.232000000     2.519000000     3.073000000
O    -3.509000000     1.957000000     2.992000000
C    -3.676000000     1.288000000     1.660000000
C    -4.173000000    -0.186000000     1.831000000
C    -3.609000000    -0.930000000     2.877000000
H    -3.030000000    -0.458000000     3.667000000
C    -5.055000000    -0.761000000     0.957000000
H    -5.492000000    -0.163000000     0.161000000
O    -4.606000000     2.123000000     0.933000000
H    -2.731000000     1.236000000     1.099000000
C    -1.895000000     3.676000000     2.396000000
C    -2.998000000     4.428000000     1.672000000
H    -2.829000000     5.507000000     1.645000000
H    -3.992000000     4.415000000     2.124000000
C    -3.016000000     3.875000000     0.235000000
C    -3.893000000     2.798000000    -0.024000000
C    -3.912000000     2.299000000    -1.328000000
H    -4.482000000     1.432000000    -1.653000000
C    -2.976000000     2.763000000    -2.278000000
O    -2.932000000     2.112000000    -3.480000000
C    -1.732000000     1.278000000    -3.741000000
H    -1.191000000     1.005000000    -2.823000000
C    -2.124000000    -0.097000000    -4.182000000
C    -1.184000000    -0.852000000    -4.851000000
H    -0.157000000    -0.498000000    -4.843000000
C    -3.385000000    -0.634000000    -3.979000000
H    -4.122000000     0.023000000    -3.525000000
C    -3.660000000    -1.945000000    -4.447000000
O    -4.898000000    -2.467000000    -4.283000000
C    -2.755000000    -2.705000000    -5.153000000
H    -2.933000000    -3.718000000    -5.507000000
C    -1.464000000    -2.130000000    -5.326000000
O    -0.459000000    -2.905000000    -5.925000000
C     0.837000000    -2.511000000    -6.222000000
C     1.903000000    -2.800000000    -5.398000000
H     1.743000000    -3.128000000    -4.374000000
C     1.045000000    -1.998000000    -7.502000000
H     0.187000000    -1.793000000    -8.136000000
C     2.366000000    -1.938000000    -7.967000000
H     2.432000000    -1.625000000    -9.006000000
C     3.488000000    -2.386000000    -7.201000000
H     4.520000000    -2.349000000    -7.541000000
C     3.261000000    -2.666000000    -5.816000000
O     4.366000000    -2.925000000    -4.937000000
C     4.328000000    -2.501000000    -3.639000000
C     4.777000000    -3.367000000    -2.679000000
H     4.906000000    -4.420000000    -2.919000000
C     4.778000000    -2.911000000    -1.341000000
O     4.881000000    -3.753000000    -0.171000000
C     5.425000000    -3.372000000     0.989000000
C     4.700000000    -3.610000000     2.167000000
H     3.768000000    -4.167000000     2.226000000
C     6.643000000    -2.695000000     0.995000000
H     7.230000000    -2.472000000     0.108000000
C     7.092000000    -2.198000000     2.200000000
H     8.133000000    -1.885000000     2.211000000
C     6.365000000    -2.352000000     3.396000000
H     6.709000000    -1.856000000     4.299000000
C     5.185000000    -3.099000000     3.378000000
O     4.465000000    -3.283000000     4.558000000
C     3.447000000    -2.485000000     4.891000000
C     2.480000000    -2.872000000     5.785000000
H     2.606000000    -3.824000000     6.295000000
C     1.346000000    -2.136000000     6.019000000
O     0.478000000    -2.647000000     6.912000000
C    -0.917000000    -2.454000000     6.653000000
C    -1.419000000    -2.718000000     5.349000000
H    -0.742000000    -3.055000000     4.568000000
C    -1.795000000    -2.045000000     7.660000000
H    -1.288000000    -1.718000000     8.564000000
C    -3.152000000    -2.108000000     7.468000000
H    -3.770000000    -1.845000000     8.323000000
C    -3.629000000    -2.503000000     6.242000000
H    -4.707000000    -2.646000000     6.227000000
C    -2.805000000    -2.690000000     5.121000000
O    -3.315000000    -3.100000000     3.877000000
C    -3.890000000    -2.271000000     2.975000000
C    -4.746000000    -2.910000000     2.069000000
H    -4.966000000    -3.968000000     2.184000000
C    -5.397000000    -2.120000000     1.106000000
O    -6.274000000    -2.718000000     0.274000000
C    -6.516000000    -2.297000000    -0.970000000
C    -7.505000000    -1.252000000    -1.228000000
H    -8.138000000    -0.946000000    -0.399000000
C    -7.729000000    -0.906000000    -2.551000000
H    -8.529000000    -0.172000000    -2.604000000
C    -6.873000000    -1.345000000    -3.596000000
H    -7.118000000    -1.101000000    -4.627000000
C    -5.822000000    -2.146000000    -3.265000000
C    -5.618000000    -2.625000000    -1.967000000
H    -4.887000000    -3.371000000    -1.667000000
O    -4.078000000    -8.172000000    -2.468000000
H    -3.951000000    -7.330000000    -2.031000000
H    -4.672000000    -8.654000000    -1.892000000
O     3.324000000    -8.985000000    -1.387000000
H     3.593000000    -9.401000000    -0.568000000
H     2.456000000    -9.348000000    -1.566000000
O     3.054000000    -6.165000000    -2.026000000
H     2.453000000    -5.648000000    -1.489000000
H     3.007000000    -7.047000000    -1.657000000
O     1.497000000    -8.732000000    -5.406000000
H     2.248000000    -9.113000000    -5.862000000
H     1.809000000    -7.880000000    -5.101000000
O    -2.375000000    -9.011000000    -6.007000000
H    -2.122000000    -8.729000000    -5.128000000
H    -1.726000000    -8.608000000    -6.584000000
O     0.125000000    -5.731000000     3.792000000
H     0.606000000    -6.144000000     3.074000000
H     0.689000000    -5.847000000     4.556000000
O     2.218000000    -8.304000000     1.498000000
H     1.380000000    -8.601000000     1.142000000
H     2.093000000    -7.368000000     1.654000000
O     2.204000000    -6.270000000    -4.682000000
H     1.277000000    -6.037000000    -4.629000000
H     2.605000000    -5.829000000    -3.933000000
O     1.546000000    -5.611000000     1.270000000
H     1.146000000    -5.411000000     0.424000000
H     1.467000000    -4.799000000     1.770000000
O     6.105000000    -6.495000000    -1.842000000
H     6.131000000    -7.127000000    -1.124000000
H     5.267000000    -6.044000000    -1.734000000
O    -0.572000000    -6.976000000     0.147000000
H    -0.318000000    -6.254000000    -0.428000000
H    -1.440000000    -6.733000000     0.467000000
O    -0.156000000    -9.473000000     0.871000000
H    -0.941000000    -9.696000000     1.373000000
H    -0.379000000    -8.652000000     0.431000000
O    -1.980000000    -5.223000000     2.264000000
H    -2.403000000    -4.490000000     2.711000000
H    -1.210000000    -5.416000000     2.798000000
O    -0.567000000    -8.434000000    -3.674000000
H     0.192000000    -8.844000000    -4.088000000
H    -0.641000000    -7.580000000    -4.100000000
O    -5.603000000    -5.337000000    -3.335000000
H    -4.672000000    -5.270000000    -3.120000000
H    -5.643000000    -5.177000000    -4.278000000
O     0.992000000   -10.062000000    -2.008000000
H     0.481000000    -9.273000000    -2.189000000
H     0.393000000   -10.630000000    -1.524000000
O    -2.169000000    -8.744000000     2.779000000
H    -1.816000000    -8.806000000     3.667000000
H    -2.122000000    -7.812000000     2.567000000
O    -0.525000000    -5.547000000    -4.419000000
H    -0.738000000    -5.197000000    -3.554000000
H    -0.597000000    -4.795000000    -5.006000000
O    -3.593000000    -5.932000000    -1.133000000
H    -3.961000000    -5.190000000    -0.653000000
H    -2.720000000    -5.638000000    -1.396000000
