201
-1242.68435
C     5.181000000    -0.766000000    -1.639000000
H     5.403000000    -0.138000000    -0.780000000
C     4.362000000    -0.140000000    -2.572000000
C     3.999000000    -0.881000000    -3.675000000
H     3.340000000    -0.425000000    -4.411000000
C     3.580000000     1.085000000    -2.172000000
O     4.483000000     1.880000000    -1.400000000
H     2.746000000     0.857000000    -1.492000000
O     3.129000000     1.830000000    -3.306000000
C     1.866000000     2.404000000    -3.258000000
C     0.840000000     1.787000000    -3.914000000
H     1.022000000     0.844000000    -4.423000000
C    -0.435000000     2.371000000    -3.966000000
O    -1.460000000     1.599000000    -4.481000000
C    -0.663000000     3.638000000    -3.360000000
C    -2.059000000     4.223000000    -3.354000000
H    -2.144000000     5.312000000    -3.350000000
C    -2.722000000     3.636000000    -2.115000000
C    -2.615000000     4.347000000    -0.880000000
H    -2.003000000     5.242000000    -0.959000000
H    -2.574000000     4.102000000    -4.310000000
C     0.391000000     4.283000000    -2.738000000
H     0.161000000     5.281000000    -2.372000000
C     1.655000000     3.672000000    -2.656000000
C     2.808000000     4.330000000    -1.887000000
H     2.605000000     5.398000000    -1.788000000
H     3.687000000     4.206000000    -2.524000000
C     3.084000000     3.694000000    -0.526000000
C     2.525000000     4.297000000     0.630000000
H     1.928000000     5.202000000     0.553000000
C     3.872000000     2.552000000    -0.388000000
C     4.026000000     1.960000000     0.881000000
H     4.570000000     1.025000000     0.994000000
C     3.382000000     2.497000000     2.014000000
O     3.335000000     1.738000000     3.114000000
C     2.066000000     0.985000000     3.289000000
C     2.390000000    -0.463000000     3.776000000
C     1.398000000    -1.291000000     4.432000000
H     0.382000000    -0.947000000     4.606000000
C     3.665000000    -1.040000000     3.661000000
H     4.455000000    -0.381000000     3.309000000
O     1.281000000     1.809000000     4.214000000
H     1.553000000     0.933000000     2.318000000
C     2.696000000     3.713000000     1.850000000
C     1.922000000     4.315000000     2.976000000
H     1.955000000     5.392000000     2.798000000
H     2.523000000     4.178000000     3.878000000
C     0.469000000     3.858000000     3.130000000
C    -0.606000000     4.466000000     2.391000000
H    -0.463000000     5.320000000     1.735000000
C     0.210000000     2.648000000     3.780000000
C    -1.047000000     2.158000000     3.953000000
H    -1.107000000     1.214000000     4.489000000
C    -2.085000000     2.786000000     3.275000000
O    -3.245000000     2.135000000     3.299000000
C    -3.539000000     1.282000000     2.181000000
C    -4.263000000    -0.050000000     2.577000000
C    -3.849000000    -0.743000000     3.713000000
H    -3.192000000    -0.288000000     4.450000000
C    -5.085000000    -0.688000000     1.616000000
H    -5.469000000    -0.138000000     0.761000000
O    -4.295000000     2.049000000     1.328000000
H    -2.566000000     0.972000000     1.772000000
C    -1.931000000     3.890000000     2.467000000
C    -3.026000000     4.490000000     1.664000000
H    -2.842000000     5.553000000     1.489000000
H    -3.878000000     4.328000000     2.327000000
C    -3.132000000     3.816000000     0.302000000
C    -3.830000000     2.609000000     0.216000000
C    -3.974000000     1.934000000    -1.006000000
H    -4.429000000     0.948000000    -0.957000000
C    -3.465000000     2.455000000    -2.174000000
O    -3.440000000     1.657000000    -3.261000000
C    -2.220000000     0.851000000    -3.477000000
H    -1.725000000     0.745000000    -2.501000000
C    -2.464000000    -0.609000000    -3.864000000
C    -1.440000000    -1.341000000    -4.464000000
H    -0.482000000    -0.862000000    -4.651000000
C    -3.688000000    -1.285000000    -3.473000000
H    -4.526000000    -0.798000000    -2.981000000
C    -3.726000000    -2.664000000    -3.560000000
O    -4.785000000    -3.420000000    -3.234000000
C    -2.667000000    -3.347000000    -4.171000000
H    -2.637000000    -4.433000000    -4.115000000
C    -1.578000000    -2.678000000    -4.616000000
O    -0.468000000    -3.511000000    -4.830000000
C     0.569000000    -3.053000000    -5.570000000
C     1.803000000    -3.088000000    -5.000000000
H     1.963000000    -3.390000000    -3.968000000
C     0.391000000    -2.573000000    -6.884000000
H    -0.580000000    -2.599000000    -7.372000000
C     1.563000000    -2.127000000    -7.594000000
H     1.404000000    -1.887000000    -8.642000000
C     2.758000000    -2.229000000    -6.953000000
H     3.678000000    -1.979000000    -7.475000000
C     2.930000000    -2.704000000    -5.691000000
O     4.167000000    -2.829000000    -5.149000000
C     4.432000000    -2.162000000    -3.940000000
C     5.280000000    -2.824000000    -2.991000000
H     5.612000000    -3.852000000    -3.112000000
C     5.633000000    -2.119000000    -1.825000000
O     6.535000000    -2.748000000    -0.891000000
C     6.668000000    -2.447000000     0.411000000
C     5.711000000    -2.824000000     1.373000000
H     4.835000000    -3.433000000     1.163000000
C     7.793000000    -1.800000000     0.805000000
H     8.531000000    -1.567000000     0.042000000
C     8.039000000    -1.477000000     2.109000000
H     8.968000000    -1.001000000     2.414000000
C     7.110000000    -1.863000000     3.000000000
H     7.159000000    -1.581000000     4.049000000
C     5.989000000    -2.578000000     2.724000000
O     5.196000000    -2.951000000     3.787000000
C     3.933000000    -2.345000000     4.002000000
C     2.955000000    -3.107000000     4.582000000
H     3.132000000    -4.159000000     4.792000000
C     1.682000000    -2.609000000     4.825000000
O     0.667000000    -3.466000000     5.240000000
C    -0.479000000    -3.202000000     5.839000000
C    -1.644000000    -3.120000000     5.063000000
H    -1.629000000    -3.453000000     4.029000000
C    -0.463000000    -2.676000000     7.142000000
H     0.504000000    -2.708000000     7.637000000
C    -1.608000000    -2.150000000     7.752000000
H    -1.664000000    -1.858000000     8.797000000
C    -2.848000000    -2.223000000     7.042000000
H    -3.795000000    -1.941000000     7.496000000
C    -2.842000000    -2.678000000     5.669000000
O    -4.062000000    -2.840000000     4.996000000
C    -4.335000000    -2.062000000     3.878000000
C    -5.164000000    -2.660000000     2.944000000
H    -5.513000000    -3.675000000     3.116000000
C    -5.547000000    -1.973000000     1.836000000
O    -6.632000000    -2.493000000     1.146000000
C    -6.736000000    -2.481000000    -0.219000000
C    -7.781000000    -1.785000000    -0.730000000
H    -8.402000000    -1.123000000    -0.131000000
C    -7.890000000    -1.688000000    -2.125000000
H    -8.714000000    -1.131000000    -2.564000000
C    -6.932000000    -2.277000000    -2.954000000
H    -6.915000000    -2.196000000    -4.038000000
C    -5.839000000    -2.946000000    -2.405000000
C    -5.741000000    -3.051000000    -1.014000000
H    -4.911000000    -3.626000000    -0.610000000
O     2.364000000    -6.658000000     4.637000000
H     2.780000000    -6.029000000     4.047000000
H     3.059000000    -7.278000000     4.854000000
O     1.943000000    -6.419000000    -3.862000000
H     1.402000000    -5.865000000    -3.299000000
H     2.070000000    -7.222000000    -3.357000000
O     7.411000000    -6.278000000    -0.842000000
H     7.805000000    -6.419000000     0.019000000
H     6.474000000    -6.414000000    -0.702000000
O     3.101000000    -8.489000000     1.130000000
H     2.438000000    -8.518000000     1.820000000
H     3.487000000    -9.365000000     1.131000000
O     0.960000000    -8.798000000     2.930000000
H     0.862000000    -7.900000000     2.611000000
H     0.734000000    -8.748000000     3.859000000
O     6.148000000    -5.970000000     2.431000000
H     5.451000000    -5.327000000     2.560000000
H     5.710000000    -6.721000000     2.031000000
O    -1.159000000    -7.147000000    -4.216000000
H    -0.706000000    -6.626000000    -4.879000000
H    -1.986000000    -7.395000000    -4.630000000
O     0.592000000    -9.483000000    -5.184000000
H     0.325000000    -9.125000000    -4.338000000
H    -0.127000000   -10.062000000    -5.437000000
O     4.712000000    -6.545000000    -0.175000000
H     4.412000000    -7.251000000     0.398000000
H     3.997000000    -5.909000000    -0.166000000
O     5.176000000    -7.214000000    -2.718000000
H     4.849000000    -6.839000000    -1.900000000
H     4.501000000    -7.840000000    -2.981000000
O     0.439000000    -6.047000000     1.824000000
H     0.769000000    -5.833000000     0.952000000
H    -0.485000000    -6.257000000     1.685000000
O     3.104000000    -5.348000000     2.051000000
H     2.178000000    -5.539000000     2.200000000
H     3.120000000    -4.871000000     1.221000000
O     1.929000000    -7.718000000    -1.481000000
H     2.495000000    -7.996000000    -0.760000000
H     1.465000000    -6.954000000    -1.140000000
O     2.299000000    -6.425000000    -6.510000000
H     2.272000000    -6.268000000    -5.566000000
H     3.186000000    -6.176000000    -6.769000000
O    -0.496000000    -9.075000000    -1.910000000
H    -1.051000000    -8.317000000    -2.095000000
H     0.362000000    -8.700000000    -1.709000000
O    -1.592000000    -6.505000000    -1.705000000
H    -0.977000000    -5.984000000    -1.188000000
H    -1.155000000    -6.624000000    -2.548000000
O     3.573000000    -9.271000000    -3.818000000
H     2.880000000    -9.834000000    -3.474000000
H     3.212000000    -8.915000000    -4.630000000
O    -2.107000000    -7.899000000     0.564000000
H    -1.767000000    -7.348000000    -0.142000000
H    -2.518000000    -7.284000000     1.171000000
O    -4.424000000    -7.340000000    -2.308000000
H    -3.566000000    -6.918000000    -2.254000000
H    -4.855000000    -6.911000000    -3.048000000
