201
-1220.16645
C    -4.735000000    -1.286000000    -1.748000000
H    -5.075000000    -0.373000000    -2.230000000
C    -4.504000000    -1.322000000    -0.401000000
C    -4.177000000    -2.638000000     0.113000000
H    -3.839000000    -2.668000000     1.146000000
C    -4.259000000    -0.120000000     0.472000000
O    -4.999000000     0.976000000     0.011000000
H    -3.213000000     0.213000000     0.412000000
O    -4.547000000    -0.351000000     1.809000000
C    -3.741000000     0.049000000     2.876000000
C    -2.802000000    -0.907000000     3.337000000
H    -2.932000000    -1.974000000     3.176000000
C    -1.768000000    -0.532000000     4.166000000
O    -0.838000000    -1.464000000     4.606000000
C    -1.531000000     0.823000000     4.402000000
C    -0.486000000     1.257000000     5.389000000
H    -0.734000000     2.193000000     5.894000000
C     0.827000000     1.490000000     4.649000000
C     1.128000000     2.734000000     4.108000000
H     0.379000000     3.522000000     4.110000000
H    -0.376000000     0.574000000     6.234000000
C    -2.393000000     1.775000000     3.924000000
H    -2.243000000     2.842000000     4.068000000
C    -3.447000000     1.405000000     3.080000000
C    -4.326000000     2.451000000     2.419000000
H    -4.420000000     3.308000000     3.089000000
H    -5.376000000     2.153000000     2.389000000
C    -3.849000000     2.888000000     1.018000000
C    -3.026000000     4.002000000     0.927000000
H    -2.674000000     4.447000000     1.854000000
C    -4.234000000     2.159000000    -0.097000000
C    -3.718000000     2.416000000    -1.344000000
H    -3.897000000     1.767000000    -2.198000000
C    -2.962000000     3.604000000    -1.421000000
O    -2.349000000     3.689000000    -2.631000000
C    -0.996000000     3.105000000    -2.729000000
C    -0.679000000     2.261000000    -3.948000000
C     0.573000000     1.821000000    -4.280000000
H     1.436000000     2.009000000    -3.647000000
C    -1.720000000     1.867000000    -4.781000000
H    -2.754000000     2.045000000    -4.495000000
O     0.038000000     4.058000000    -2.541000000
H    -0.935000000     2.435000000    -1.858000000
C    -2.509000000     4.285000000    -0.319000000
C    -1.504000000     5.402000000    -0.453000000
H    -1.714000000     6.152000000     0.312000000
H    -1.613000000     5.923000000    -1.406000000
C    -0.077000000     4.853000000    -0.241000000
C     0.557000000     4.805000000     1.020000000
H     0.078000000     5.367000000     1.817000000
C     0.628000000     4.256000000    -1.302000000
C     1.927000000     3.778000000    -1.123000000
H     2.412000000     3.331000000    -1.987000000
C     2.485000000     3.740000000     0.115000000
O     3.733000000     3.226000000     0.267000000
C     3.690000000     1.847000000     0.707000000
C     4.726000000     1.091000000    -0.124000000
C     5.067000000     1.360000000    -1.501000000
H     4.617000000     2.184000000    -2.049000000
C     5.260000000    -0.105000000     0.424000000
H     4.976000000    -0.448000000     1.415000000
O     4.038000000     1.767000000     2.115000000
H     2.663000000     1.456000000     0.653000000
C     1.846000000     4.340000000     1.203000000
C     2.468000000     4.252000000     2.578000000
H     2.057000000     5.032000000     3.222000000
H     3.532000000     4.473000000     2.467000000
C     2.298000000     2.965000000     3.365000000
C     3.145000000     1.856000000     3.126000000
C     2.795000000     0.563000000     3.583000000
H     3.428000000    -0.295000000     3.368000000
C     1.729000000     0.420000000     4.461000000
O     1.344000000    -0.867000000     4.904000000
C     0.458000000    -1.597000000     4.064000000
H     0.514000000    -1.111000000     3.079000000
C     0.858000000    -3.010000000     3.841000000
C    -0.039000000    -4.043000000     3.759000000
H    -1.107000000    -3.852000000     3.815000000
C     2.242000000    -3.274000000     3.468000000
H     2.945000000    -2.446000000     3.420000000
C     2.611000000    -4.616000000     3.131000000
O     3.904000000    -5.088000000     2.815000000
C     1.623000000    -5.579000000     3.068000000
H     1.871000000    -6.560000000     2.671000000
C     0.328000000    -5.331000000     3.474000000
O    -0.697000000    -6.267000000     3.402000000
C    -1.993000000    -5.994000000     2.973000000
C    -2.252000000    -5.596000000     1.674000000
H    -1.484000000    -5.393000000     0.932000000
C    -3.109000000    -6.108000000     3.877000000
H    -2.836000000    -6.282000000     4.914000000
C    -4.390000000    -5.934000000     3.399000000
H    -5.176000000    -6.110000000     4.129000000
C    -4.600000000    -5.557000000     2.067000000
H    -5.641000000    -5.449000000     1.773000000
C    -3.539000000    -5.299000000     1.239000000
O    -3.833000000    -4.970000000    -0.114000000
C    -4.230000000    -3.817000000    -0.666000000
C    -4.700000000    -3.714000000    -1.976000000
H    -4.675000000    -4.564000000    -2.653000000
C    -5.010000000    -2.464000000    -2.496000000
O    -5.554000000    -2.329000000    -3.761000000
C    -5.331000000    -1.232000000    -4.586000000
C    -4.119000000    -0.911000000    -5.158000000
H    -3.212000000    -1.444000000    -4.884000000
C    -6.411000000    -0.512000000    -5.041000000
H    -7.391000000    -0.759000000    -4.642000000
C    -6.269000000     0.569000000    -5.920000000
H    -7.150000000     1.015000000    -6.374000000
C    -5.016000000     0.816000000    -6.550000000
H    -4.761000000     1.591000000    -7.267000000
C    -3.914000000     0.113000000    -6.062000000
O    -2.580000000     0.415000000    -6.527000000
C    -1.536000000     0.955000000    -5.855000000
C    -0.288000000     0.523000000    -6.120000000
H    -0.136000000    -0.267000000    -6.851000000
C     0.781000000     0.982000000    -5.378000000
O     1.994000000     0.442000000    -5.675000000
C     3.216000000     1.105000000    -5.562000000
C     4.150000000     0.721000000    -4.569000000
H     3.891000000     0.006000000    -3.792000000
C     3.632000000     2.012000000    -6.548000000
H     2.911000000     2.304000000    -7.307000000
C     4.953000000     2.404000000    -6.655000000
H     5.331000000     3.035000000    -7.455000000
C     5.850000000     2.042000000    -5.592000000
H     6.872000000     2.395000000    -5.697000000
C     5.466000000     1.229000000    -4.560000000
O     6.371000000     0.859000000    -3.522000000
C     5.974000000     0.546000000    -2.221000000
C     6.613000000    -0.502000000    -1.530000000
H     7.247000000    -1.118000000    -2.162000000
C     6.256000000    -0.824000000    -0.242000000
O     6.825000000    -1.994000000     0.408000000
C     6.414000000    -2.553000000     1.617000000
C     6.832000000    -2.092000000     2.854000000
H     7.502000000    -1.238000000     2.909000000
C     6.265000000    -2.554000000     4.025000000
H     6.378000000    -2.025000000     4.967000000
C     5.405000000    -3.639000000     4.046000000
H     4.905000000    -3.945000000     4.961000000
C     4.974000000    -4.224000000     2.856000000
C     5.498000000    -3.667000000     1.673000000
H     5.144000000    -4.005000000     0.702000000
O     0.603000000    -8.284000000     0.337000000
H     0.798000000    -7.363000000     0.159000000
H     1.246000000    -8.769000000    -0.181000000
O     0.400000000   -10.103000000    -3.600000000
H     0.964000000   -10.444000000    -2.906000000
H     0.186000000    -9.213000000    -3.319000000
O     4.620000000    -9.943000000     0.825000000
H     4.773000000   -10.426000000     0.013000000
H     4.411000000    -9.054000000     0.540000000
O    -1.830000000    -8.935000000    -0.795000000
H    -1.414000000    -9.778000000    -0.615000000
H    -1.132000000    -8.292000000    -0.671000000
O     5.838000000    -7.194000000    -1.389000000
H     5.714000000    -6.270000000    -1.608000000
H     5.316000000    -7.324000000    -0.597000000
O     3.755000000    -7.206000000     0.745000000
H     3.147000000    -7.060000000     0.020000000
H     3.784000000    -6.367000000     1.205000000
O    -1.076000000    -4.244000000    -3.454000000
H    -2.001000000    -4.267000000    -3.697000000
H    -0.698000000    -3.566000000    -4.015000000
O     5.206000000    -4.735000000    -1.788000000
H     4.346000000    -4.930000000    -1.415000000
H     5.015000000    -4.255000000    -2.593000000
O    -0.572000000    -9.096000000     2.689000000
H    -0.176000000    -8.560000000     2.002000000
H    -1.486000000    -9.191000000     2.421000000
O     3.027000000    -6.017000000    -3.486000000
H     3.290000000    -5.102000000    -3.581000000
H     2.842000000    -6.117000000    -2.552000000
O     2.672000000    -9.091000000     2.770000000
H     3.259000000    -8.611000000     2.186000000
H     2.780000000   -10.008000000     2.517000000
O     5.261000000    -6.083000000    -5.635000000
H     5.854000000    -5.597000000    -5.061000000
H     4.435000000    -6.115000000    -5.154000000
O     1.467000000    -3.128000000    -3.389000000
H     1.033000000    -3.963000000    -3.214000000
H     1.312000000    -2.607000000    -2.602000000
O     4.840000000    -8.947000000    -3.229000000
H     5.285000000    -9.652000000    -2.759000000
H     5.332000000    -8.159000000    -3.000000000
O    -0.286000000    -7.189000000    -2.612000000
H    -0.994000000    -6.641000000    -2.952000000
H     0.136000000    -6.648000000    -1.945000000
O     7.897000000    -4.942000000    -2.052000000
H     6.962000000    -4.773000000    -1.942000000
H     8.025000000    -4.977000000    -3.000000000
O     2.002000000    -8.307000000    -5.066000000
H     2.340000000    -9.118000000    -4.686000000
H     2.363000000    -7.615000000    -4.513000000
O     2.374000000    -9.602000000    -1.212000000
H     3.091000000    -9.631000000    -1.845000000
H     2.576000000   -10.301000000    -0.590000000
O     4.267000000    -3.176000000    -3.918000000
H     4.384000000    -2.779000000    -4.780000000
H     3.358000000    -2.984000000    -3.687000000
