201
-1226.02603
C     5.102000000    -0.507000000     0.840000000
H     4.688000000    -0.306000000     1.825000000
C     4.875000000     0.463000000    -0.067000000
C     5.351000000     0.295000000    -1.410000000
H     5.029000000     1.013000000    -2.160000000
C     4.016000000     1.678000000     0.303000000
O     4.188000000     2.106000000     1.667000000
H     2.962000000     1.368000000     0.247000000
O     4.144000000     2.741000000    -0.657000000
C     3.000000000     3.389000000    -1.150000000
C     2.638000000     3.118000000    -2.425000000
H     3.157000000     2.364000000    -3.011000000
C     1.391000000     3.569000000    -2.894000000
O     0.810000000     3.012000000    -4.036000000
C     0.663000000     4.542000000    -2.190000000
C    -0.775000000     4.950000000    -2.499000000
H    -0.850000000     5.841000000    -1.872000000
C    -1.776000000     3.925000000    -1.902000000
C    -2.457000000     4.073000000    -0.655000000
H    -2.219000000     4.917000000    -0.014000000
H    -0.901000000     5.112000000    -3.572000000
C     1.173000000     4.865000000    -0.940000000
H     0.675000000     5.589000000    -0.301000000
C     2.306000000     4.323000000    -0.396000000
C     2.802000000     4.692000000     1.046000000
H     2.687000000     5.769000000     1.186000000
H     3.879000000     4.513000000     1.023000000
C     2.352000000     3.731000000     2.109000000
C     1.187000000     3.907000000     2.787000000
H     0.645000000     4.794000000     2.470000000
C     3.048000000     2.519000000     2.368000000
C     2.510000000     1.580000000     3.276000000
H     3.014000000     0.627000000     3.416000000
C     1.349000000     1.885000000     4.012000000
O     0.953000000     0.921000000     4.879000000
C    -0.094000000     0.014000000     4.424000000
C     0.098000000    -1.501000000     4.678000000
C    -0.959000000    -2.304000000     5.114000000
H    -1.891000000    -1.851000000     5.441000000
C     1.257000000    -2.152000000     4.292000000
H     2.164000000    -1.584000000     4.104000000
O    -1.413000000     0.459000000     4.959000000
H    -0.088000000    -0.027000000     3.325000000
C     0.640000000     3.052000000     3.762000000
C    -0.669000000     3.359000000     4.470000000
H    -0.924000000     4.418000000     4.394000000
H    -0.615000000     3.083000000     5.526000000
C    -1.827000000     2.527000000     3.817000000
C    -2.621000000     3.298000000     2.903000000
H    -2.290000000     4.273000000     2.556000000
C    -2.236000000     1.226000000     4.126000000
C    -3.338000000     0.637000000     3.527000000
H    -3.619000000    -0.392000000     3.736000000
C    -4.089000000     1.268000000     2.564000000
O    -4.840000000     0.498000000     1.687000000
C    -4.063000000     0.157000000     0.484000000
C    -4.289000000    -1.316000000     0.118000000
C    -4.562000000    -2.332000000     1.033000000
H    -4.596000000    -2.061000000     2.085000000
C    -4.280000000    -1.673000000    -1.247000000
H    -3.947000000    -0.978000000    -2.013000000
O    -4.547000000     1.090000000    -0.543000000
H    -2.993000000     0.209000000     0.738000000
C    -3.645000000     2.580000000     2.149000000
C    -4.275000000     3.306000000     0.972000000
H    -4.348000000     4.378000000     1.165000000
H    -5.307000000     3.052000000     0.724000000
C    -3.449000000     3.139000000    -0.311000000
C    -3.728000000     1.962000000    -1.095000000
C    -3.051000000     1.847000000    -2.321000000
H    -3.157000000     0.974000000    -2.960000000
C    -2.034000000     2.783000000    -2.612000000
O    -1.355000000     2.561000000    -3.799000000
C    -0.051000000     1.964000000    -3.745000000
H     0.206000000     1.664000000    -2.718000000
C     0.088000000     0.809000000    -4.692000000
C     1.301000000     0.173000000    -4.794000000
H     2.197000000     0.447000000    -4.243000000
C    -0.995000000     0.244000000    -5.314000000
H    -2.012000000     0.623000000    -5.267000000
C    -0.867000000    -0.939000000    -6.009000000
O    -1.923000000    -1.605000000    -6.587000000
C     0.413000000    -1.571000000    -6.164000000
H     0.457000000    -2.493000000    -6.738000000
C     1.508000000    -0.941000000    -5.651000000
O     2.696000000    -1.585000000    -5.782000000
C     3.939000000    -0.955000000    -5.564000000
C     4.665000000    -1.194000000    -4.388000000
H     4.206000000    -1.851000000    -3.653000000
C     4.460000000    -0.056000000    -6.554000000
H     3.813000000     0.303000000    -7.350000000
C     5.634000000     0.647000000    -6.267000000
H     6.005000000     1.465000000    -6.880000000
C     6.404000000     0.283000000    -5.194000000
H     7.388000000     0.716000000    -5.031000000
C     5.940000000    -0.622000000    -4.237000000
O     6.632000000    -0.822000000    -3.056000000
C     6.163000000    -0.764000000    -1.774000000
C     6.370000000    -1.750000000    -0.812000000
H     6.804000000    -2.702000000    -1.108000000
C     5.849000000    -1.652000000     0.516000000
O     6.166000000    -2.616000000     1.443000000
C     5.603000000    -2.777000000     2.638000000
C     4.390000000    -3.524000000     2.722000000
H     4.067000000    -3.964000000     1.782000000
C     6.073000000    -2.098000000     3.807000000
H     7.015000000    -1.561000000     3.730000000
C     5.335000000    -2.227000000     4.956000000
H     5.670000000    -1.790000000     5.893000000
C     4.183000000    -2.979000000     5.005000000
H     3.579000000    -2.919000000     5.907000000
C     3.682000000    -3.719000000     3.912000000
O     2.397000000    -4.256000000     3.891000000
C     1.271000000    -3.578000000     4.259000000
C     0.154000000    -4.358000000     4.576000000
H     0.160000000    -5.445000000     4.577000000
C    -0.944000000    -3.667000000     5.024000000
O    -2.046000000    -4.399000000     5.533000000
C    -3.243000000    -4.212000000     4.908000000
C    -3.440000000    -4.563000000     3.608000000
H    -2.658000000    -5.108000000     3.084000000
C    -4.360000000    -3.672000000     5.593000000
H    -4.277000000    -3.466000000     6.657000000
C    -5.585000000    -3.452000000     4.999000000
H    -6.392000000    -2.964000000     5.540000000
C    -5.755000000    -3.800000000     3.696000000
H    -6.689000000    -3.580000000     3.185000000
C    -4.730000000    -4.450000000     2.928000000
O    -4.874000000    -4.688000000     1.599000000
C    -4.871000000    -3.631000000     0.656000000
C    -4.970000000    -3.916000000    -0.731000000
H    -5.330000000    -4.903000000    -1.011000000
C    -4.645000000    -2.914000000    -1.706000000
O    -4.667000000    -3.238000000    -3.052000000
C    -4.500000000    -2.441000000    -4.190000000
C    -5.435000000    -1.552000000    -4.613000000
H    -6.357000000    -1.456000000    -4.045000000
C    -5.229000000    -0.777000000    -5.778000000
H    -5.946000000    -0.071000000    -6.187000000
C    -4.067000000    -0.870000000    -6.466000000
H    -3.913000000    -0.193000000    -7.302000000
C    -3.096000000    -1.741000000    -6.033000000
C    -3.246000000    -2.518000000    -4.777000000
H    -2.430000000    -3.130000000    -4.403000000
O     3.699000000    -3.835000000    -7.089000000
H     3.460000000    -4.209000000    -6.241000000
H     3.873000000    -2.912000000    -6.903000000
O     4.511000000    -6.692000000    -6.341000000
H     3.838000000    -6.832000000    -7.007000000
H     4.031000000    -6.367000000    -5.580000000
O    -1.645000000    -5.374000000     0.186000000
H    -2.540000000    -5.639000000     0.397000000
H    -1.588000000    -5.455000000    -0.766000000
O     2.201000000    -7.096000000    -7.594000000
H     1.524000000    -6.953000000    -6.933000000
H     1.718000000    -7.190000000    -8.415000000
O    -2.572000000    -5.266000000    -6.267000000
H    -3.117000000    -5.491000000    -7.022000000
H    -2.966000000    -5.743000000    -5.537000000
O    -3.869000000    -6.643000000    -4.251000000
H    -3.485000000    -7.458000000    -3.928000000
H    -3.818000000    -6.043000000    -3.506000000
O     0.828000000    -7.337000000    -3.427000000
H     0.365000000    -6.953000000    -4.172000000
H     0.795000000    -6.661000000    -2.750000000
O     6.509000000    -5.963000000     0.349000000
H     5.734000000    -5.659000000    -0.122000000
H     7.216000000    -5.398000000     0.036000000
O     3.018000000    -7.477000000     1.662000000
H     3.466000000    -7.837000000     0.897000000
H     2.378000000    -6.865000000     1.298000000
O     3.914000000    -8.691000000    -0.550000000
H     3.760000000    -8.215000000    -1.367000000
H     3.642000000    -9.588000000    -0.741000000
O    -0.850000000    -2.706000000     1.239000000
H    -0.435000000    -2.275000000     0.492000000
H    -0.633000000    -3.632000000     1.131000000
O     0.878000000   -10.039000000    -0.862000000
H     0.667000000    -9.267000000    -0.338000000
H     1.017000000    -9.699000000    -1.745000000
O     4.305000000    -8.005000000    -3.227000000
H     3.755000000    -8.753000000    -3.461000000
H     5.005000000    -8.009000000    -3.879000000
O     0.692000000    -6.702000000     0.254000000
H    -0.105000000    -6.278000000     0.576000000
H     1.044000000    -6.090000000    -0.392000000
O     2.108000000    -9.812000000    -3.442000000
H     1.518000000    -9.077000000    -3.606000000
H     2.242000000   -10.207000000    -4.304000000
O     2.965000000    -5.430000000    -4.122000000
H     3.095000000    -6.273000000    -3.689000000
H     2.054000000    -5.202000000    -3.937000000
O     4.378000000    -5.028000000    -0.995000000
H     4.596000000    -5.316000000    -1.881000000
H     3.432000000    -4.886000000    -1.015000000
O    -2.242000000    -5.147000000    -2.473000000
H    -1.387000000    -5.078000000    -2.897000000
H    -2.496000000    -4.241000000    -2.297000000
O    -0.117000000    -5.753000000    -5.603000000
H    -1.001000000    -5.531000000    -5.896000000
H    -0.001000000    -5.256000000    -4.793000000
