201
-1260.40934
C     4.847000000     1.139000000     2.123000000
H     4.201000000     1.086000000     2.996000000
C     4.384000000     2.035000000     1.169000000
C     5.015000000     2.030000000    -0.028000000
H     4.637000000     2.697000000    -0.799000000
C     3.063000000     2.832000000     1.442000000
O     2.822000000     3.168000000     2.877000000
H     2.136000000     2.296000000     1.190000000
O     2.999000000     4.106000000     0.687000000
C     1.852000000     4.482000000     0.037000000
C     1.755000000     4.176000000    -1.345000000
H     2.617000000     3.754000000    -1.855000000
C     0.515000000     4.287000000    -1.960000000
O     0.398000000     3.753000000    -3.188000000
C    -0.590000000     4.809000000    -1.263000000
C    -1.947000000     4.997000000    -1.905000000
H    -2.441000000     5.873000000    -1.478000000
C    -2.783000000     3.679000000    -1.955000000
C    -3.698000000     3.413000000    -0.925000000
H    -3.872000000     4.206000000    -0.203000000
H    -1.633000000     5.283000000    -2.911000000
C    -0.512000000     5.149000000     0.107000000
H    -1.470000000     5.374000000     0.569000000
C     0.764000000     5.012000000     0.799000000
C     0.698000000     5.187000000     2.282000000
H    -0.143000000     5.872000000     2.413000000
H     1.539000000     5.804000000     2.604000000
C     0.508000000     3.930000000     3.085000000
C    -0.760000000     3.632000000     3.503000000
H    -1.578000000     4.338000000     3.389000000
C     1.546000000     3.023000000     3.290000000
C     1.270000000     1.818000000     3.914000000
H     2.035000000     1.059000000     4.056000000
C    -0.056000000     1.489000000     4.248000000
O    -0.279000000     0.259000000     4.751000000
C    -0.825000000    -0.739000000     3.831000000
C    -0.099000000    -2.041000000     3.962000000
C    -0.790000000    -3.215000000     3.688000000
H    -1.846000000    -3.185000000     3.429000000
C     1.227000000    -2.155000000     4.314000000
H     1.815000000    -1.250000000     4.440000000
O    -2.268000000    -0.845000000     4.035000000
H    -0.605000000    -0.397000000     2.809000000
C    -1.061000000     2.410000000     4.051000000
C    -2.538000000     1.988000000     4.455000000
H    -3.130000000     2.899000000     4.564000000
H    -2.545000000     1.524000000     5.443000000
C    -3.245000000     1.188000000     3.317000000
C    -4.068000000     1.836000000     2.428000000
H    -4.065000000     2.923000000     2.397000000
C    -3.029000000    -0.160000000     3.148000000
C    -3.895000000    -0.916000000     2.359000000
H    -3.759000000    -1.992000000     2.277000000
C    -4.721000000    -0.249000000     1.444000000
O    -5.308000000    -0.926000000     0.421000000
C    -4.421000000    -0.998000000    -0.725000000
C    -4.047000000    -2.403000000    -1.289000000
C    -4.376000000    -3.472000000    -0.458000000
H    -4.849000000    -3.304000000     0.506000000
C    -3.277000000    -2.473000000    -2.441000000
H    -3.013000000    -1.549000000    -2.950000000
O    -4.839000000    -0.048000000    -1.784000000
H    -3.460000000    -0.627000000    -0.341000000
C    -4.750000000     1.175000000     1.416000000
C    -5.371000000     1.944000000     0.250000000
H    -5.949000000     2.834000000     0.505000000
H    -6.279000000     1.509000000    -0.174000000
C    -4.380000000     2.208000000    -0.821000000
C    -4.191000000     1.238000000    -1.803000000
C    -3.254000000     1.431000000    -2.812000000
H    -3.078000000     0.695000000    -3.592000000
C    -2.582000000     2.646000000    -2.927000000
O    -1.563000000     2.690000000    -3.826000000
C    -0.263000000     2.491000000    -3.395000000
H    -0.247000000     1.896000000    -2.471000000
C     0.466000000     1.586000000    -4.346000000
C     1.859000000     1.376000000    -4.336000000
H     2.451000000     1.861000000    -3.564000000
C    -0.261000000     0.759000000    -5.183000000
H    -1.338000000     0.886000000    -5.247000000
C     0.343000000     0.028000000    -6.164000000
O    -0.437000000    -0.642000000    -7.095000000
C     1.717000000    -0.061000000    -6.169000000
H     2.236000000    -0.586000000    -6.967000000
C     2.481000000     0.598000000    -5.277000000
O     3.869000000     0.518000000    -5.246000000
C     4.688000000     1.360000000    -4.613000000
C     5.236000000     0.911000000    -3.364000000
H     4.998000000    -0.064000000    -2.946000000
C     4.987000000     2.622000000    -5.187000000
H     4.696000000     2.819000000    -6.216000000
C     5.813000000     3.497000000    -4.441000000
H     6.066000000     4.483000000    -4.821000000
C     6.335000000     3.080000000    -3.258000000
H     6.911000000     3.758000000    -2.634000000
C     6.139000000     1.789000000    -2.750000000
O     6.688000000     1.353000000    -1.505000000
C     6.115000000     1.211000000    -0.267000000
C     6.672000000     0.507000000     0.799000000
H     7.553000000    -0.125000000     0.721000000
C     6.015000000     0.422000000     2.002000000
O     6.528000000    -0.309000000     3.010000000
C     5.831000000    -0.880000000     4.060000000
C     4.763000000    -1.755000000     3.727000000
H     4.514000000    -1.959000000     2.689000000
C     6.245000000    -0.686000000     5.365000000
H     7.150000000    -0.117000000     5.560000000
C     5.590000000    -1.349000000     6.373000000
H     5.955000000    -1.276000000     7.395000000
C     4.583000000    -2.295000000     6.080000000
H     4.173000000    -2.870000000     6.906000000
C     4.178000000    -2.514000000     4.740000000
O     3.291000000    -3.534000000     4.516000000
C     1.923000000    -3.399000000     4.236000000
C     1.242000000    -4.572000000     3.884000000
H     1.718000000    -5.548000000     3.932000000
C    -0.119000000    -4.471000000     3.607000000
O    -0.756000000    -5.641000000     3.396000000
C    -2.069000000    -5.862000000     3.040000000
C    -2.498000000    -5.552000000     1.701000000
H    -1.842000000    -4.979000000     1.052000000
C    -2.854000000    -6.767000000     3.750000000
H    -2.424000000    -7.167000000     4.665000000
C    -4.143000000    -7.152000000     3.248000000
H    -4.801000000    -7.836000000     3.779000000
C    -4.531000000    -6.895000000     1.945000000
H    -5.438000000    -7.389000000     1.606000000
C    -3.708000000    -6.091000000     1.165000000
O    -4.245000000    -5.809000000    -0.068000000
C    -3.948000000    -4.726000000    -0.836000000
C    -3.252000000    -4.890000000    -1.989000000
H    -2.975000000    -5.895000000    -2.297000000
C    -2.889000000    -3.816000000    -2.842000000
O    -2.033000000    -3.979000000    -3.951000000
C    -2.164000000    -3.269000000    -5.103000000
C    -3.242000000    -3.482000000    -5.957000000
H    -4.065000000    -4.139000000    -5.685000000
C    -3.341000000    -2.875000000    -7.193000000
H    -4.166000000    -3.218000000    -7.811000000
C    -2.288000000    -2.024000000    -7.587000000
H    -2.346000000    -1.445000000    -8.505000000
C    -1.302000000    -1.663000000    -6.687000000
C    -1.137000000    -2.381000000    -5.470000000
H    -0.312000000    -2.085000000    -4.826000000
O     5.037000000    -8.801000000    -0.623000000
H     4.800000000    -7.876000000    -0.555000000
H     5.413000000    -9.015000000     0.231000000
O     3.178000000    -3.212000000    -5.400000000
H     2.839000000    -2.857000000    -4.579000000
H     3.836000000    -2.576000000    -5.682000000
O    -3.146000000    -8.826000000    -1.318000000
H    -3.796000000    -8.142000000    -1.154000000
H    -2.306000000    -8.408000000    -1.132000000
O     4.190000000    -5.554000000    -4.172000000
H     3.910000000    -5.280000000    -3.299000000
H     3.899000000    -4.848000000    -4.750000000
O     3.385000000    -9.318000000     2.438000000
H     2.581000000    -8.809000000     2.331000000
H     3.526000000    -9.348000000     3.384000000
O     4.042000000    -6.258000000     2.228000000
H     3.926000000    -7.153000000     1.907000000
H     3.255000000    -5.796000000     1.937000000
O     6.019000000    -4.551000000     1.150000000
H     5.505000000    -3.970000000     0.589000000
H     5.368000000    -5.015000000     1.676000000
O     1.124000000    -7.730000000     1.896000000
H     1.240000000    -7.893000000     0.960000000
H     1.040000000    -6.779000000     1.965000000
O    -0.751000000    -7.400000000    -1.484000000
H     0.059000000    -7.907000000    -1.427000000
H    -0.546000000    -6.570000000    -1.054000000
O     2.852000000   -10.748000000     0.032000000
H     3.301000000   -10.389000000     0.797000000
H     3.132000000   -11.662000000    -0.003000000
O     3.960000000    -6.044000000    -0.832000000
H     4.617000000    -5.366000000    -0.677000000
H     3.186000000    -5.741000000    -0.357000000
O     0.047000000    -6.167000000    -5.058000000
H    -0.734000000    -5.715000000    -4.740000000
H     0.464000000    -5.539000000    -5.648000000
O     4.708000000    -2.967000000    -0.773000000
H     5.139000000    -2.688000000    -1.581000000
H     3.777000000    -2.811000000    -0.933000000
O     1.759000000    -8.217000000    -0.953000000
H     2.520000000    -7.664000000    -1.125000000
H     2.130000000    -9.066000000    -0.711000000
O     1.651000000    -5.036000000    -3.037000000
H     1.308000000    -5.400000000    -2.221000000
H     1.307000000    -5.613000000    -3.719000000
O    -1.855000000    -8.979000000    -4.052000000
H    -0.997000000    -8.580000000    -3.905000000
H    -2.233000000    -9.063000000    -3.176000000
O     4.413000000    -6.166000000     5.159000000
H     3.965000000    -5.388000000     5.492000000
H     4.019000000    -6.319000000     4.300000000
O     2.048000000    -2.341000000    -2.510000000
H     1.839000000    -3.259000000    -2.684000000
H     1.371000000    -2.054000000    -1.897000000
O    -0.032000000    -8.385000000     4.390000000
H     0.324000000    -8.156000000     3.532000000
H    -0.101000000    -7.550000000     4.852000000
