201
-1259.99996
C     4.649000000     1.216000000     2.610000000
H     4.042000000     1.109000000     3.505000000
C     4.171000000     1.951000000     1.513000000
C     4.856000000     1.970000000     0.340000000
H     4.600000000     2.495000000    -0.577000000
C     2.851000000     2.748000000     1.688000000
O     2.522000000     2.979000000     3.162000000
H     2.002000000     2.103000000     1.420000000
O     2.905000000     4.058000000     0.956000000
C     1.746000000     4.368000000     0.253000000
C     1.711000000     4.072000000    -1.099000000
H     2.563000000     3.718000000    -1.675000000
C     0.514000000     4.246000000    -1.823000000
O     0.566000000     3.728000000    -3.104000000
C    -0.656000000     4.629000000    -1.189000000
C    -2.016000000     4.774000000    -1.926000000
H    -2.597000000     5.503000000    -1.357000000
C    -2.762000000     3.409000000    -1.938000000
C    -3.707000000     3.140000000    -0.971000000
H    -3.790000000     3.855000000    -0.157000000
H    -1.889000000     5.156000000    -2.941000000
C    -0.619000000     4.916000000     0.189000000
H    -1.499000000     5.239000000     0.738000000
C     0.583000000     4.799000000     0.924000000
C     0.540000000     5.000000000     2.399000000
H    -0.176000000     5.785000000     2.649000000
H     1.514000000     5.421000000     2.654000000
C     0.185000000     3.697000000     3.107000000
C    -1.113000000     3.381000000     3.493000000
H    -1.902000000     4.081000000     3.231000000
C     1.208000000     2.775000000     3.414000000
C     0.844000000     1.603000000     4.051000000
H     1.624000000     0.878000000     4.267000000
C    -0.420000000     1.267000000     4.387000000
O    -0.673000000     0.136000000     5.067000000
C    -1.085000000    -0.917000000     4.208000000
C    -0.337000000    -2.281000000     4.434000000
C    -0.845000000    -3.455000000     3.893000000
H    -1.826000000    -3.485000000     3.426000000
C     0.975000000    -2.198000000     4.820000000
H     1.400000000    -1.260000000     5.167000000
O    -2.535000000    -1.043000000     4.192000000
H    -0.739000000    -0.597000000     3.214000000
C    -1.431000000     2.164000000     4.058000000
C    -2.913000000     1.831000000     4.395000000
H    -3.581000000     2.686000000     4.517000000
H    -2.896000000     1.312000000     5.355000000
C    -3.415000000     1.010000000     3.226000000
C    -4.109000000     1.543000000     2.152000000
H    -4.255000000     2.619000000     2.113000000
C    -3.215000000    -0.373000000     3.242000000
C    -3.796000000    -1.143000000     2.217000000
H    -3.515000000    -2.188000000     2.108000000
C    -4.493000000    -0.599000000     1.215000000
O    -4.801000000    -1.340000000     0.116000000
C    -4.009000000    -1.135000000    -1.038000000
C    -3.724000000    -2.439000000    -1.687000000
C    -3.509000000    -3.578000000    -0.907000000
H    -3.550000000    -3.603000000     0.179000000
C    -3.485000000    -2.499000000    -3.085000000
H    -3.598000000    -1.590000000    -3.670000000
O    -4.678000000    -0.299000000    -1.990000000
H    -3.064000000    -0.710000000    -0.670000000
C    -4.732000000     0.798000000     1.191000000
C    -5.325000000     1.538000000     0.060000000
H    -5.880000000     2.406000000     0.423000000
H    -6.032000000     0.906000000    -0.481000000
C    -4.259000000     1.881000000    -0.939000000
C    -4.073000000     0.956000000    -1.990000000
C    -3.208000000     1.260000000    -3.005000000
H    -3.137000000     0.547000000    -3.822000000
C    -2.542000000     2.493000000    -2.980000000
O    -1.485000000     2.699000000    -3.849000000
C    -0.130000000     2.452000000    -3.423000000
H    -0.190000000     1.809000000    -2.532000000
C     0.659000000     1.665000000    -4.501000000
C     2.049000000     1.601000000    -4.453000000
H     2.584000000     2.062000000    -3.626000000
C    -0.029000000     0.841000000    -5.330000000
H    -1.109000000     0.925000000    -5.422000000
C     0.678000000     0.061000000    -6.263000000
O    -0.046000000    -0.632000000    -7.222000000
C     2.064000000     0.146000000    -6.326000000
H     2.599000000    -0.511000000    -7.007000000
C     2.742000000     0.862000000    -5.341000000
O     4.077000000     0.806000000    -5.306000000
C     4.870000000     1.407000000    -4.353000000
C     5.215000000     0.761000000    -3.171000000
H     4.792000000    -0.241000000    -3.141000000
C     5.566000000     2.571000000    -4.709000000
H     5.290000000     3.045000000    -5.647000000
C     6.543000000     3.131000000    -3.891000000
H     7.184000000     3.918000000    -4.281000000
C     6.758000000     2.520000000    -2.655000000
H     7.558000000     2.953000000    -2.059000000
C     6.118000000     1.363000000    -2.308000000
O     6.471000000     0.756000000    -1.111000000
C     5.952000000     1.053000000     0.141000000
C     6.371000000     0.309000000     1.229000000
H     7.242000000    -0.322000000     1.072000000
C     5.777000000     0.429000000     2.486000000
O     6.310000000    -0.344000000     3.549000000
C     5.448000000    -0.807000000     4.466000000
C     4.611000000    -1.883000000     4.326000000
H     4.447000000    -2.360000000     3.363000000
C     5.504000000    -0.174000000     5.711000000
H     6.235000000     0.620000000     5.838000000
C     4.773000000    -0.566000000     6.820000000
H     4.915000000    -0.242000000     7.848000000
C     4.008000000    -1.721000000     6.659000000
H     3.415000000    -2.015000000     7.521000000
C     3.850000000    -2.300000000     5.424000000
O     3.086000000    -3.393000000     5.273000000
C     1.758000000    -3.368000000     4.880000000
C     1.238000000    -4.543000000     4.447000000
H     1.871000000    -5.425000000     4.391000000
C    -0.037000000    -4.560000000     3.933000000
O    -0.341000000    -5.776000000     3.348000000
C    -1.477000000    -5.999000000     2.650000000
C    -1.667000000    -5.584000000     1.276000000
H    -0.972000000    -5.060000000     0.624000000
C    -2.483000000    -6.668000000     3.329000000
H    -2.261000000    -6.875000000     4.373000000
C    -3.629000000    -7.061000000     2.665000000
H    -4.370000000    -7.753000000     3.057000000
C    -3.790000000    -6.755000000     1.320000000
H    -4.628000000    -7.210000000     0.799000000
C    -2.800000000    -6.090000000     0.577000000
O    -2.960000000    -5.984000000    -0.805000000
C    -3.182000000    -4.825000000    -1.539000000
C    -2.989000000    -4.870000000    -2.930000000
H    -2.813000000    -5.799000000    -3.468000000
C    -3.098000000    -3.707000000    -3.703000000
O    -2.976000000    -3.727000000    -5.083000000
C    -2.772000000    -2.645000000    -5.907000000
C    -3.772000000    -2.101000000    -6.676000000
H    -4.765000000    -2.508000000    -6.503000000
C    -3.583000000    -0.963000000    -7.467000000
H    -4.436000000    -0.559000000    -8.006000000
C    -2.340000000    -0.549000000    -7.686000000
H    -2.131000000     0.286000000    -8.349000000
C    -1.271000000    -1.150000000    -6.943000000
C    -1.483000000    -2.149000000    -5.979000000
H    -0.715000000    -2.628000000    -5.377000000
O     1.018000000    -5.814000000    -4.048000000
H     1.201000000    -5.242000000    -3.303000000
H     1.014000000    -6.696000000    -3.677000000
O     3.404000000    -4.074000000    -3.541000000
H     3.349000000    -4.928000000    -3.969000000
H     2.586000000    -4.000000000    -3.049000000
O     1.653000000    -7.238000000     1.734000000
H     1.308000000    -7.342000000     0.847000000
H     2.021000000    -6.354000000     1.745000000
O     4.461000000    -5.814000000     4.225000000
H     4.599000000    -5.184000000     4.933000000
H     5.327000000    -6.193000000     4.072000000
O     6.954000000    -5.708000000     2.746000000
H     6.761000000    -5.218000000     1.947000000
H     7.437000000    -5.090000000     3.295000000
O     4.734000000    -8.999000000    -1.297000000
H     3.939000000    -9.342000000    -1.706000000
H     4.645000000    -8.048000000    -1.361000000
O     6.733000000    -5.459000000    -1.535000000
H     5.870000000    -5.725000000    -1.217000000
H     7.350000000    -5.962000000    -1.004000000
O     0.450000000    -9.921000000    -0.331000000
H    -0.364000000    -9.862000000     0.170000000
H     0.750000000    -9.016000000    -0.409000000
O     0.497000000    -5.965000000    -6.874000000
H    -0.424000000    -6.215000000    -6.958000000
H     0.671000000    -6.004000000    -5.934000000
O     2.016000000    -3.210000000    -5.980000000
H     2.712000000    -3.451000000    -5.369000000
H     1.256000000    -3.714000000    -5.687000000
O     0.791000000    -7.147000000    -0.763000000
H     1.081000000    -6.275000000    -1.032000000
H     0.633000000    -7.610000000    -1.585000000
O     6.437000000    -2.930000000     0.749000000
H     5.924000000    -3.675000000     1.061000000
H     6.089000000    -2.749000000    -0.125000000
O     4.600000000    -4.872000000     1.479000000
H     3.686000000    -4.696000000     1.256000000
H     4.571000000    -5.172000000     2.387000000
O     4.093000000    -6.672000000    -4.488000000
H     4.772000000    -7.335000000    -4.612000000
H     3.349000000    -6.994000000    -4.997000000
O     1.309000000    -8.502000000    -3.214000000
H     0.828000000    -9.326000000    -3.133000000
H     2.230000000    -8.762000000    -3.229000000
O     5.450000000    -3.025000000    -1.892000000
H     4.836000000    -3.289000000    -2.577000000
H     6.113000000    -3.715000000    -1.885000000
O     4.055000000    -6.244000000    -1.208000000
H     3.577000000    -6.194000000    -0.380000000
H     3.605000000    -5.625000000    -1.782000000
O     3.987000000    -8.170000000     3.105000000
H     3.185000000    -8.126000000     2.584000000
H     4.074000000    -7.295000000     3.484000000
O     0.237000000    -8.551000000     3.966000000
H     0.953000000    -8.630000000     3.336000000
H    -0.134000000    -7.684000000     3.799000000
