201
-1252.79692
C     4.226000000     1.471000000     2.571000000
H     3.631000000     1.352000000     3.474000000
C     3.849000000     2.418000000     1.623000000
C     4.720000000     2.595000000     0.548000000
H     4.555000000     3.307000000    -0.257000000
C     2.490000000     3.077000000     1.642000000
O     1.909000000     3.487000000     2.900000000
H     1.709000000     2.443000000     1.196000000
O     2.510000000     4.239000000     0.810000000
C     1.420000000     4.348000000     0.019000000
C     1.626000000     4.059000000    -1.315000000
H     2.614000000     3.851000000    -1.718000000
C     0.597000000     4.113000000    -2.253000000
O     0.830000000     3.451000000    -3.404000000
C    -0.739000000     4.479000000    -1.846000000
C    -1.835000000     4.399000000    -2.815000000
H    -2.543000000     5.224000000    -2.719000000
C    -2.588000000     3.033000000    -2.766000000
C    -3.652000000     2.826000000    -1.841000000
H    -3.941000000     3.643000000    -1.184000000
H    -1.462000000     4.499000000    -3.837000000
C    -0.852000000     4.838000000    -0.481000000
H    -1.831000000     5.023000000    -0.047000000
C     0.195000000     4.795000000     0.393000000
C    -0.095000000     5.117000000     1.834000000
H    -0.931000000     5.818000000     1.815000000
H     0.781000000     5.585000000     2.289000000
C    -0.380000000     3.887000000     2.704000000
C    -1.670000000     3.574000000     2.952000000
H    -2.486000000     4.038000000     2.404000000
C     0.670000000     3.133000000     3.185000000
C     0.412000000     2.125000000     4.030000000
H     1.212000000     1.462000000     4.351000000
C    -0.881000000     1.711000000     4.274000000
O    -1.129000000     0.458000000     4.819000000
C    -1.475000000    -0.645000000     3.904000000
C    -0.714000000    -1.889000000     4.302000000
C    -1.422000000    -3.050000000     4.302000000
H    -2.472000000    -3.050000000     4.019000000
C     0.646000000    -1.792000000     4.650000000
H     1.258000000    -0.900000000     4.760000000
O    -2.895000000    -0.797000000     3.918000000
H    -1.148000000    -0.354000000     2.895000000
C    -1.934000000     2.450000000     3.741000000
C    -3.392000000     2.084000000     3.787000000
H    -4.056000000     2.945000000     3.687000000
H    -3.588000000     1.614000000     4.753000000
C    -3.910000000     1.109000000     2.781000000
C    -4.626000000     1.586000000     1.640000000
H    -4.861000000     2.647000000     1.617000000
C    -3.674000000    -0.290000000     2.926000000
C    -4.037000000    -1.104000000     1.871000000
H    -3.827000000    -2.167000000     1.954000000
C    -4.613000000    -0.622000000     0.712000000
O    -4.816000000    -1.496000000    -0.312000000
C    -3.793000000    -1.507000000    -1.391000000
C    -3.511000000    -2.893000000    -1.811000000
C    -3.460000000    -3.878000000    -0.830000000
H    -3.659000000    -3.605000000     0.203000000
C    -3.154000000    -3.268000000    -3.162000000
H    -3.238000000    -2.587000000    -4.005000000
O    -4.232000000    -0.719000000    -2.450000000
H    -2.847000000    -1.056000000    -1.057000000
C    -4.905000000     0.730000000     0.590000000
C    -5.387000000     1.339000000    -0.739000000
H    -5.922000000     2.283000000    -0.616000000
H    -6.145000000     0.678000000    -1.165000000
C    -4.283000000     1.576000000    -1.782000000
C    -3.722000000     0.541000000    -2.549000000
C    -2.709000000     0.727000000    -3.443000000
H    -2.392000000    -0.044000000    -4.140000000
C    -2.079000000     1.943000000    -3.469000000
O    -0.909000000     2.004000000    -4.226000000
C     0.375000000     2.054000000    -3.513000000
H     0.219000000     1.646000000    -2.503000000
C     1.403000000     1.185000000    -4.293000000
C     2.766000000     1.452000000    -4.264000000
H     3.135000000     2.326000000    -3.735000000
C     1.047000000    -0.022000000    -4.759000000
H     0.006000000    -0.309000000    -4.632000000
C     1.931000000    -0.994000000    -5.193000000
O     1.493000000    -2.291000000    -5.474000000
C     3.324000000    -0.643000000    -5.305000000
H     4.074000000    -1.354000000    -5.641000000
C     3.676000000     0.580000000    -4.877000000
O     5.023000000     0.878000000    -4.939000000
C     5.684000000     1.708000000    -4.099000000
C     6.069000000     1.309000000    -2.811000000
H     5.901000000     0.283000000    -2.494000000
C     5.879000000     3.034000000    -4.512000000
H     5.590000000     3.421000000    -5.486000000
C     6.306000000     4.006000000    -3.597000000
H     6.441000000     5.047000000    -3.879000000
C     6.667000000     3.634000000    -2.339000000
H     6.956000000     4.387000000    -1.610000000
C     6.545000000     2.303000000    -1.945000000
O     6.830000000     2.036000000    -0.632000000
C     5.881000000     1.792000000     0.369000000
C     6.198000000     0.920000000     1.355000000
H     7.151000000     0.398000000     1.337000000
C     5.429000000     0.759000000     2.463000000
O     5.894000000    -0.043000000     3.452000000
C     5.083000000    -0.417000000     4.491000000
C     4.196000000    -1.505000000     4.280000000
H     4.103000000    -2.023000000     3.329000000
C     5.241000000     0.225000000     5.711000000
H     5.971000000     1.014000000     5.876000000
C     4.488000000    -0.320000000     6.773000000
H     4.694000000     0.015000000     7.787000000
C     3.577000000    -1.344000000     6.599000000
H     2.926000000    -1.740000000     7.374000000
C     3.436000000    -1.920000000     5.362000000
O     2.610000000    -3.008000000     5.252000000
C     1.303000000    -2.962000000     4.925000000
C     0.592000000    -4.171000000     4.922000000
H     1.100000000    -5.069000000     5.266000000
C    -0.749000000    -4.190000000     4.562000000
O    -1.478000000    -5.378000000     4.381000000
C    -2.508000000    -5.587000000     3.446000000
C    -2.265000000    -5.800000000     2.085000000
H    -1.256000000    -5.915000000     1.698000000
C    -3.830000000    -5.455000000     3.949000000
H    -3.932000000    -5.283000000     5.018000000
C    -4.893000000    -5.558000000     3.026000000
H    -5.890000000    -5.627000000     3.452000000
C    -4.659000000    -5.802000000     1.701000000
H    -5.522000000    -5.867000000     1.044000000
C    -3.345000000    -5.903000000     1.218000000
O    -2.973000000    -6.099000000    -0.091000000
C    -3.058000000    -5.205000000    -1.124000000
C    -2.684000000    -5.535000000    -2.433000000
H    -2.465000000    -6.573000000    -2.672000000
C    -2.775000000    -4.585000000    -3.425000000
O    -2.438000000    -4.925000000    -4.718000000
C    -1.754000000    -3.984000000    -5.461000000
C    -2.317000000    -3.449000000    -6.624000000
H    -3.325000000    -3.751000000    -6.898000000
C    -1.644000000    -2.525000000    -7.387000000
H    -2.111000000    -2.123000000    -8.283000000
C    -0.374000000    -2.047000000    -7.027000000
H     0.030000000    -1.198000000    -7.572000000
C     0.252000000    -2.627000000    -5.917000000
C    -0.375000000    -3.617000000    -5.197000000
H     0.046000000    -4.083000000    -4.309000000
O     3.463000000    -4.110000000    -3.824000000
H     2.885000000    -4.368000000    -3.106000000
H     2.955000000    -3.469000000    -4.322000000
O     4.270000000    -1.453000000    -0.217000000
H     4.417000000    -1.979000000    -1.003000000
H     3.372000000    -1.134000000    -0.306000000
O     1.154000000    -7.537000000     3.379000000
H     0.547000000    -8.033000000     2.830000000
H     0.847000000    -7.689000000     4.273000000
O     5.286000000    -4.503000000    -0.084000000
H     5.580000000    -3.715000000     0.374000000
H     4.475000000    -4.750000000     0.361000000
O     1.981000000    -9.527000000    -2.398000000
H     1.582000000    -8.657000000    -2.376000000
H     2.879000000    -9.371000000    -2.693000000
O     7.695000000    -2.045000000    -0.986000000
H     7.507000000    -2.629000000    -0.251000000
H     6.990000000    -2.213000000    -1.611000000
O    -1.225000000    -8.528000000    -0.285000000
H    -1.883000000    -7.888000000    -0.012000000
H    -1.045000000    -9.038000000     0.505000000
O     5.307000000    -5.137000000     4.784000000
H     4.754000000    -5.177000000     4.003000000
H     5.245000000    -4.227000000     5.075000000
O     6.258000000    -6.587000000     2.177000000
H     5.927000000    -6.796000000     3.051000000
H     6.449000000    -5.650000000     2.211000000
O     5.490000000    -2.799000000    -2.293000000
H     5.818000000    -3.044000000    -3.158000000
H     5.147000000    -3.615000000    -1.928000000
O     0.651000000    -6.801000000    -2.445000000
H     1.071000000    -6.138000000    -1.896000000
H    -0.060000000    -7.144000000    -1.904000000
O     5.072000000    -8.612000000    -0.103000000
H     4.266000000    -8.112000000     0.025000000
H     5.668000000    -8.283000000     0.570000000
O     3.025000000    -5.405000000     3.143000000
H     2.274000000    -5.987000000     3.025000000
H     3.101000000    -4.941000000     2.309000000
O     4.091000000    -6.714000000    -3.445000000
H     3.995000000    -5.802000000    -3.722000000
H     4.391000000    -6.658000000    -2.538000000
O     0.808000000    -7.401000000    -5.112000000
H    -0.062000000    -7.720000000    -5.355000000
H     0.714000000    -7.116000000    -4.203000000
O     6.418000000    -2.585000000     1.547000000
H     5.955000000    -1.824000000     1.197000000
H     6.922000000    -2.240000000     2.284000000
O     2.667000000    -7.487000000     0.415000000
H     2.850000000    -6.548000000     0.389000000
H     1.772000000    -7.548000000     0.747000000
O     4.154000000    -8.791000000     2.898000000
H     3.998000000    -8.133000000     3.576000000
H     3.356000000    -8.784000000     2.369000000
O     7.627000000    -5.486000000    -1.111000000
H     7.223000000    -5.293000000    -1.957000000
H     7.013000000    -5.132000000    -0.467000000
