201
-1219.05622
C     4.330000000    -1.375000000     0.711000000
H     3.816000000    -2.204000000     1.191000000
C     4.325000000    -0.091000000     1.239000000
C     5.101000000     0.893000000     0.649000000
H     5.305000000     1.839000000     1.144000000
C     3.442000000     0.199000000     2.493000000
O     3.349000000    -0.918000000     3.441000000
H     2.453000000     0.318000000     2.025000000
O     3.960000000     1.427000000     3.094000000
C     2.922000000     2.411000000     3.227000000
C     2.873000000     3.419000000     2.361000000
H     3.682000000     3.579000000     1.653000000
C     1.664000000     4.027000000     2.139000000
O     1.451000000     4.757000000     1.041000000
C     0.618000000     3.850000000     2.985000000
C    -0.712000000     4.617000000     2.951000000
H    -1.073000000     4.809000000     3.963000000
C    -1.791000000     4.001000000     2.048000000
C    -2.759000000     3.263000000     2.650000000
H    -2.814000000     3.210000000     3.734000000
H    -0.430000000     5.598000000     2.562000000
C     0.720000000     2.844000000     3.939000000
H    -0.068000000     2.892000000     4.686000000
C     1.850000000     2.071000000     4.110000000
C     1.939000000     1.034000000     5.224000000
H     1.343000000     1.411000000     6.058000000
H     2.970000000     0.896000000     5.556000000
C     1.298000000    -0.289000000     4.712000000
C    -0.023000000    -0.693000000     5.008000000
H    -0.599000000     0.011000000     5.604000000
C     2.055000000    -1.172000000     3.889000000
C     1.515000000    -2.371000000     3.465000000
H     2.187000000    -2.995000000     2.881000000
C     0.109000000    -2.656000000     3.714000000
O    -0.435000000    -3.806000000     3.254000000
C    -1.335000000    -3.634000000     2.091000000
C    -0.981000000    -4.687000000     1.041000000
C    -1.946000000    -5.197000000     0.149000000
H    -2.967000000    -4.826000000     0.193000000
C     0.316000000    -5.150000000     0.889000000
H     1.089000000    -4.853000000     1.593000000
O    -2.678000000    -3.786000000     2.505000000
H    -1.206000000    -2.633000000     1.655000000
C    -0.647000000    -1.847000000     4.525000000
C    -2.143000000    -2.078000000     4.781000000
H    -2.526000000    -1.521000000     5.639000000
H    -2.151000000    -3.138000000     5.042000000
C    -3.042000000    -1.727000000     3.690000000
C    -3.714000000    -0.498000000     3.699000000
H    -3.462000000     0.075000000     4.588000000
C    -3.353000000    -2.609000000     2.662000000
C    -4.032000000    -2.102000000     1.579000000
H    -4.307000000    -2.764000000     0.762000000
C    -4.513000000    -0.806000000     1.515000000
O    -4.934000000    -0.320000000     0.291000000
C    -3.962000000     0.404000000    -0.505000000
C    -4.064000000    -0.035000000    -2.003000000
C    -4.452000000    -1.298000000    -2.274000000
H    -4.623000000    -1.987000000    -1.450000000
C    -3.833000000     0.878000000    -2.985000000
H    -3.380000000     1.858000000    -2.861000000
O    -4.261000000     1.795000000    -0.387000000
H    -2.966000000     0.333000000    -0.044000000
C    -4.311000000     0.068000000     2.569000000
C    -4.674000000     1.583000000     2.540000000
H    -4.776000000     1.875000000     3.587000000
H    -5.654000000     1.708000000     2.074000000
C    -3.621000000     2.503000000     1.865000000
C    -3.467000000     2.528000000     0.468000000
C    -2.517000000     3.310000000    -0.152000000
H    -2.400000000     3.281000000    -1.232000000
C    -1.720000000     4.134000000     0.650000000
O    -0.727000000     4.852000000    -0.003000000
C     0.637000000     4.304000000    -0.080000000
H     0.479000000     3.249000000     0.188000000
C     1.189000000     4.342000000    -1.475000000
C     2.423000000     5.005000000    -1.731000000
H     2.955000000     5.504000000    -0.925000000
C     0.584000000     3.657000000    -2.497000000
H    -0.370000000     3.162000000    -2.331000000
C     1.179000000     3.613000000    -3.762000000
O     0.558000000     3.125000000    -4.868000000
C     2.475000000     4.057000000    -3.940000000
H     2.951000000     3.938000000    -4.909000000
C     3.113000000     4.743000000    -2.946000000
O     4.321000000     5.263000000    -3.046000000
C     5.177000000     4.718000000    -2.119000000
C     5.476000000     3.370000000    -2.101000000
H     4.837000000     2.842000000    -2.805000000
C     5.752000000     5.508000000    -1.136000000
H     5.581000000     6.580000000    -1.205000000
C     6.598000000     5.004000000    -0.154000000
H     7.030000000     5.635000000     0.618000000
C     6.826000000     3.617000000    -0.106000000
H     7.290000000     3.097000000     0.729000000
C     6.272000000     2.821000000    -1.141000000
O     6.565000000     1.499000000    -1.218000000
C     5.769000000     0.573000000    -0.559000000
C     5.685000000    -0.704000000    -1.153000000
H     6.259000000    -0.984000000    -2.033000000
C     4.875000000    -1.615000000    -0.538000000
O     4.750000000    -2.836000000    -1.227000000
C     4.561000000    -4.011000000    -0.545000000
C     3.297000000    -4.562000000    -0.628000000
H     2.528000000    -4.065000000    -1.214000000
C     5.633000000    -4.635000000     0.078000000
H     6.588000000    -4.116000000     0.066000000
C     5.445000000    -5.869000000     0.577000000
H     6.288000000    -6.394000000     1.018000000
C     4.210000000    -6.512000000     0.534000000
H     3.971000000    -7.519000000     0.867000000
C     3.130000000    -5.850000000    -0.083000000
O     1.909000000    -6.559000000    -0.223000000
C     0.617000000    -6.021000000    -0.120000000
C    -0.296000000    -6.395000000    -1.072000000
H    -0.069000000    -6.940000000    -1.985000000
C    -1.573000000    -6.019000000    -0.933000000
O    -2.526000000    -6.304000000    -1.903000000
C    -3.780000000    -5.760000000    -2.168000000
C    -3.832000000    -4.494000000    -2.912000000
H    -2.909000000    -3.964000000    -3.134000000
C    -4.947000000    -6.334000000    -1.582000000
H    -4.850000000    -7.186000000    -0.913000000
C    -6.156000000    -5.783000000    -1.856000000
H    -7.062000000    -6.258000000    -1.488000000
C    -6.212000000    -4.652000000    -2.703000000
H    -7.200000000    -4.213000000    -2.820000000
C    -5.129000000    -3.999000000    -3.155000000
O    -5.262000000    -2.906000000    -3.904000000
C    -4.739000000    -1.689000000    -3.578000000
C    -4.464000000    -0.801000000    -4.609000000
H    -4.486000000    -1.235000000    -5.606000000
C    -3.973000000     0.469000000    -4.343000000
O    -3.795000000     1.273000000    -5.442000000
C    -3.016000000     2.421000000    -5.501000000
C    -3.525000000     3.669000000    -5.473000000
H    -4.579000000     3.910000000    -5.579000000
C    -2.686000000     4.849000000    -5.605000000
H    -3.159000000     5.828000000    -5.583000000
C    -1.378000000     4.659000000    -5.248000000
H    -0.750000000     5.525000000    -5.056000000
C    -0.808000000     3.387000000    -5.128000000
C    -1.611000000     2.233000000    -5.364000000
H    -1.213000000     1.221000000    -5.337000000
O    -1.003000000     0.384000000    -8.763000000
H    -0.329000000    -0.203000000    -8.421000000
H    -0.879000000     0.364000000    -9.712000000
O     1.193000000    -3.320000000    -6.063000000
H     1.719000000    -3.095000000    -5.295000000
H     1.495000000    -4.193000000    -6.313000000
O     3.773000000     2.479000000    -6.840000000
H     3.761000000     1.711000000    -7.411000000
H     4.253000000     2.193000000    -6.063000000
O     6.321000000    -5.126000000    -5.115000000
H     6.674000000    -5.303000000    -5.987000000
H     6.147000000    -4.185000000    -5.114000000
O     0.715000000    -1.457000000    -7.921000000
H     1.307000000    -0.888000000    -7.429000000
H     0.829000000    -2.321000000    -7.523000000
O     8.935000000    -0.918000000    -1.705000000
H     8.473000000    -1.343000000    -2.428000000
H     9.696000000    -1.476000000    -1.546000000
O     4.645000000    -6.922000000    -2.720000000
H     4.663000000    -6.324000000    -1.973000000
H     4.235000000    -6.416000000    -3.422000000
O    -0.030000000    -5.512000000    -3.900000000
H    -0.838000000    -5.125000000    -4.239000000
H     0.665000000    -4.946000000    -4.237000000
O     5.734000000    -2.503000000    -4.870000000
H     4.874000000    -2.180000000    -4.602000000
H     6.357000000    -1.934000000    -4.417000000
O     0.656000000    -5.909000000    -6.673000000
H     0.168000000    -6.631000000    -6.276000000
H     0.422000000    -5.943000000    -7.600000000
O     2.158000000     0.305000000    -6.217000000
H     2.544000000     0.041000000    -5.381000000
H     1.910000000     1.221000000    -6.087000000
O     4.075000000    -7.346000000    -5.921000000
H     3.478000000    -6.598000000    -5.881000000
H     4.898000000    -6.978000000    -6.244000000
O     5.393000000     0.220000000    -8.222000000
H     5.961000000     0.743000000    -7.656000000
H     5.643000000     0.473000000    -9.111000000
O     5.239000000     1.062000000    -5.122000000
H     4.634000000     0.563000000    -4.573000000
H     6.054000000     0.560000000    -5.099000000
O     8.132000000    -1.271000000    -4.138000000
H     8.298000000    -2.066000000    -4.645000000
H     8.445000000    -0.560000000    -4.697000000
O     3.752000000    -4.999000000    -4.319000000
H     4.672000000    -4.819000000    -4.508000000
H     3.342000000    -4.135000000    -4.274000000
O     4.383000000    -2.377000000    -7.502000000
H     4.171000000    -2.682000000    -6.620000000
H     4.524000000    -1.435000000    -7.402000000
O     3.372000000    -1.964000000   -10.035000000
H     2.688000000    -2.633000000   -10.076000000
H     3.781000000    -2.092000000    -9.179000000
O    -1.496000000    -2.315000000    -6.126000000
H    -1.304000000    -1.393000000    -5.953000000
H    -0.637000000    -2.721000000    -6.245000000
