201
-1245.48573
C     3.097000000    -1.475000000     3.347000000
H     2.372000000    -2.247000000     3.102000000
C     2.608000000    -0.304000000     3.933000000
C     3.466000000     0.809000000     4.071000000
H     3.066000000     1.785000000     4.334000000
C     1.125000000    -0.166000000     4.023000000
O     0.465000000    -1.341000000     4.611000000
H     0.733000000    -0.071000000     3.000000000
O     0.753000000     1.006000000     4.660000000
C    -0.330000000     1.772000000     4.190000000
C    -0.017000000     3.027000000     3.587000000
H     1.016000000     3.304000000     3.390000000
C    -0.985000000     3.730000000     2.967000000
O    -0.550000000     4.629000000     2.055000000
C    -2.302000000     3.314000000     3.025000000
C    -3.428000000     4.013000000     2.224000000
H    -4.334000000     4.033000000     2.834000000
C    -3.547000000     3.395000000     0.823000000
C    -4.562000000     2.455000000     0.500000000
H    -5.255000000     2.251000000     1.313000000
H    -3.113000000     5.059000000     2.256000000
C    -2.613000000     2.163000000     3.741000000
H    -3.656000000     1.893000000     3.880000000
C    -1.657000000     1.347000000     4.315000000
C    -1.985000000     0.076000000     5.075000000
H    -2.964000000     0.262000000     5.519000000
H    -1.353000000    -0.013000000     5.961000000
C    -1.940000000    -1.170000000     4.264000000
C    -3.094000000    -1.619000000     3.725000000
H    -4.075000000    -1.170000000     3.856000000
C    -0.725000000    -1.819000000     4.039000000
C    -0.707000000    -3.041000000     3.409000000
H     0.178000000    -3.670000000     3.365000000
C    -1.878000000    -3.421000000     2.745000000
O    -1.661000000    -4.413000000     1.851000000
C    -1.543000000    -4.030000000     0.463000000
C    -0.341000000    -4.630000000    -0.226000000
C    -0.126000000    -4.463000000    -1.568000000
H    -0.853000000    -3.906000000    -2.153000000
C     0.658000000    -5.309000000     0.596000000
H     0.638000000    -5.327000000     1.683000000
O    -2.791000000    -4.265000000    -0.194000000
H    -1.442000000    -2.936000000     0.401000000
C    -3.095000000    -2.780000000     2.907000000
C    -4.383000000    -3.095000000     2.144000000
H    -5.247000000    -2.793000000     2.740000000
H    -4.487000000    -4.182000000     2.153000000
C    -4.352000000    -2.597000000     0.701000000
C    -5.060000000    -1.422000000     0.395000000
H    -5.684000000    -0.975000000     1.164000000
C    -3.611000000    -3.125000000    -0.348000000
C    -3.432000000    -2.450000000    -1.576000000
H    -2.725000000    -2.828000000    -2.310000000
C    -4.005000000    -1.215000000    -1.723000000
O    -3.813000000    -0.622000000    -3.003000000
C    -2.818000000     0.430000000    -3.076000000
C    -2.050000000     0.254000000    -4.397000000
C    -1.784000000    -0.906000000    -5.095000000
H    -2.066000000    -1.866000000    -4.669000000
C    -1.531000000     1.409000000    -5.004000000
H    -1.658000000     2.422000000    -4.630000000
O    -3.614000000     1.617000000    -2.951000000
H    -2.077000000     0.569000000    -2.275000000
C    -4.900000000    -0.695000000    -0.784000000
C    -5.550000000     0.682000000    -0.948000000
H    -6.442000000     0.768000000    -0.323000000
H    -5.939000000     0.674000000    -1.968000000
C    -4.544000000     1.795000000    -0.732000000
C    -3.617000000     2.188000000    -1.738000000
C    -2.681000000     3.133000000    -1.455000000
H    -1.959000000     3.407000000    -2.220000000
C    -2.612000000     3.722000000    -0.200000000
O    -1.684000000     4.744000000    -0.031000000
C    -0.479000000     4.318000000     0.649000000
H    -0.523000000     3.220000000     0.595000000
C     0.821000000     4.779000000    -0.080000000
C     1.910000000     4.903000000     0.724000000
H     1.825000000     4.999000000     1.804000000
C     0.854000000     4.708000000    -1.466000000
H    -0.046000000     4.517000000    -2.045000000
C     2.141000000     4.766000000    -2.031000000
O     2.389000000     4.775000000    -3.378000000
C     3.278000000     4.893000000    -1.239000000
H     4.187000000     4.954000000    -1.831000000
C     3.185000000     5.008000000     0.196000000
O     4.304000000     5.095000000     0.905000000
C     4.461000000     4.639000000     2.157000000
C     4.908000000     3.359000000     2.419000000
H     4.983000000     2.619000000     1.626000000
C     4.543000000     5.609000000     3.186000000
H     4.281000000     6.605000000     2.837000000
C     5.141000000     5.304000000     4.410000000
H     5.227000000     6.026000000     5.217000000
C     5.503000000     3.952000000     4.632000000
H     5.881000000     3.640000000     5.602000000
C     5.478000000     3.021000000     3.633000000
O     5.681000000     1.682000000     3.998000000
C     4.836000000     0.676000000     3.793000000
C     5.333000000    -0.627000000     3.438000000
H     6.382000000    -0.676000000     3.157000000
C     4.442000000    -1.658000000     3.162000000
O     5.042000000    -2.832000000     2.701000000
C     4.392000000    -4.037000000     2.811000000
C     3.789000000    -4.635000000     1.732000000
H     3.696000000    -4.125000000     0.777000000
C     4.408000000    -4.764000000     4.013000000
H     4.984000000    -4.364000000     4.844000000
C     3.730000000    -5.996000000     4.152000000
H     3.664000000    -6.588000000     5.062000000
C     3.167000000    -6.543000000     3.028000000
H     2.712000000    -7.529000000     2.981000000
C     3.241000000    -5.901000000     1.804000000
O     2.740000000    -6.467000000     0.671000000
C     1.704000000    -5.906000000    -0.043000000
C     1.788000000    -5.948000000    -1.418000000
H     2.627000000    -6.429000000    -1.914000000
C     0.961000000    -5.065000000    -2.157000000
O     1.392000000    -4.838000000    -3.398000000
C     0.589000000    -4.677000000    -4.548000000
C     0.235000000    -3.467000000    -5.042000000
H     0.361000000    -2.545000000    -4.481000000
C     0.133000000    -5.910000000    -5.114000000
H     0.296000000    -6.875000000    -4.641000000
C    -0.550000000    -5.940000000    -6.310000000
H    -0.755000000    -6.902000000    -6.774000000
C    -0.838000000    -4.685000000    -6.898000000
H    -1.292000000    -4.614000000    -7.883000000
C    -0.499000000    -3.466000000    -6.266000000
O    -0.853000000    -2.258000000    -6.857000000
C    -0.997000000    -0.985000000    -6.271000000
C    -0.440000000     0.138000000    -6.798000000
H     0.077000000     0.020000000    -7.747000000
C    -0.739000000     1.338000000    -6.133000000
O    -0.297000000     2.519000000    -6.732000000
C     0.029000000     3.598000000    -5.980000000
C    -0.715000000     4.728000000    -6.251000000
H    -1.461000000     4.801000000    -7.039000000
C    -0.446000000     5.856000000    -5.471000000
H    -1.107000000     6.718000000    -5.498000000
C     0.615000000     5.880000000    -4.570000000
H     0.711000000     6.813000000    -4.021000000
C     1.395000000     4.768000000    -4.338000000
C     1.067000000     3.558000000    -4.993000000
H     1.657000000     2.657000000    -4.850000000
O     3.475000000     1.399000000    -6.705000000
H     3.405000000     2.346000000    -6.585000000
H     4.124000000     1.122000000    -6.058000000
O     2.326000000    -0.738000000    -4.631000000
H     2.759000000     0.049000000    -4.299000000
H     2.865000000    -1.461000000    -4.311000000
O     6.042000000    -3.979000000    -1.298000000
H     5.833000000    -3.047000000    -1.243000000
H     5.368000000    -4.342000000    -1.873000000
O     7.803000000    -3.039000000    -4.878000000
H     7.412000000    -2.994000000    -5.751000000
H     7.853000000    -3.976000000    -4.687000000
O     7.119000000     2.489000000    -5.213000000
H     6.976000000     1.548000000    -5.316000000
H     7.954000000     2.653000000    -5.650000000
O     4.553000000    -4.442000000    -3.529000000
H     3.779000000    -4.726000000    -4.016000000
H     5.292000000    -4.744000000    -4.057000000
O     6.498000000     1.980000000    -1.756000000
H     7.090000000     1.412000000    -2.249000000
H     6.152000000     1.420000000    -1.061000000
O     8.050000000    -0.914000000    -0.926000000
H     7.105000000    -0.977000000    -1.062000000
H     8.148000000    -0.285000000    -0.211000000
O     7.385000000    -3.396000000     1.533000000
H     6.725000000    -3.305000000     2.221000000
H     6.883000000    -3.385000000     0.718000000
O     6.717000000     4.632000000    -1.571000000
H     6.520000000     3.699000000    -1.487000000
H     6.318000000     5.032000000    -0.798000000
O     9.286000000    -0.177000000    -3.353000000
H     9.192000000    -0.712000000    -2.564000000
H     8.606000000    -0.501000000    -3.944000000
O     9.126000000    -3.197000000     3.819000000
H     8.782000000    -2.941000000     2.963000000
H     8.865000000    -2.486000000     4.404000000
O     7.439000000     1.153000000     1.370000000
H     6.705000000     0.681000000     0.977000000
H     7.118000000     1.420000000     2.232000000
O     9.682000000     2.874000000     0.536000000
H     8.964000000     2.391000000     0.945000000
H     9.629000000     3.750000000     0.917000000
O     4.602000000     1.019000000    -3.830000000
H     5.141000000     1.610000000    -3.304000000
H     4.916000000     0.144000000    -3.604000000
O     8.628000000    -5.083000000    -1.206000000
H     7.844000000    -4.534000000    -1.219000000
H     9.165000000    -4.718000000    -0.503000000
O     5.244000000    -1.495000000    -3.705000000
H     5.419000000    -1.362000000    -2.774000000
H     5.621000000    -2.353000000    -3.900000000
O     6.393000000    -0.531000000    -6.098000000
H     5.912000000    -1.131000000    -6.669000000
H     6.054000000    -0.712000000    -5.221000000
O     5.222000000    -6.446000000    -1.066000000
H     4.330000000    -6.197000000    -0.823000000
H     5.776000000    -5.775000000    -0.666000000
