201
-1247.58565
C     1.353000000    -3.786000000     3.774000000
H     0.737000000    -4.432000000     3.154000000
C     0.717000000    -2.657000000     4.295000000
C     1.456000000    -1.792000000     5.146000000
H     1.091000000    -0.850000000     5.547000000
C    -0.765000000    -2.383000000     3.920000000
O    -1.508000000    -3.551000000     3.428000000
H    -0.702000000    -1.731000000     3.036000000
O    -1.513000000    -1.630000000     4.963000000
C    -2.105000000    -0.491000000     4.454000000
C    -1.416000000     0.701000000     4.481000000
H    -0.464000000     0.838000000     4.988000000
C    -2.021000000     1.765000000     3.696000000
O    -1.261000000     2.831000000     3.495000000
C    -3.250000000     1.656000000     3.132000000
C    -3.873000000     2.833000000     2.385000000
H    -4.963000000     2.769000000     2.410000000
C    -3.436000000     3.156000000     0.942000000
C    -4.146000000     2.636000000    -0.133000000
H    -4.960000000     1.973000000     0.149000000
H    -3.705000000     3.771000000     2.919000000
C    -3.886000000     0.461000000     3.161000000
H    -4.838000000     0.419000000     2.639000000
C    -3.302000000    -0.661000000     3.729000000
C    -4.014000000    -2.004000000     3.626000000
H    -5.093000000    -1.954000000     3.790000000
H    -3.732000000    -2.563000000     4.521000000
C    -3.503000000    -2.707000000     2.339000000
C    -4.204000000    -2.538000000     1.145000000
H    -5.202000000    -2.108000000     1.181000000
C    -2.272000000    -3.364000000     2.308000000
C    -1.833000000    -3.869000000     1.145000000
H    -0.993000000    -4.557000000     1.186000000
C    -2.535000000    -3.768000000    -0.036000000
O    -1.911000000    -4.225000000    -1.215000000
C    -1.212000000    -3.210000000    -1.961000000
C     0.191000000    -3.695000000    -2.514000000
C     0.487000000    -3.594000000    -3.884000000
H    -0.196000000    -3.215000000    -4.641000000
C     1.118000000    -4.307000000    -1.654000000
H     0.887000000    -4.178000000    -0.600000000
O    -2.125000000    -2.823000000    -3.082000000
H    -1.022000000    -2.331000000    -1.327000000
C    -3.710000000    -3.023000000    -0.084000000
C    -4.487000000    -2.797000000    -1.417000000
H    -5.557000000    -2.662000000    -1.244000000
H    -4.360000000    -3.683000000    -2.042000000
C    -3.968000000    -1.555000000    -2.174000000
C    -4.590000000    -0.341000000    -2.074000000
H    -5.280000000    -0.210000000    -1.245000000
C    -2.891000000    -1.683000000    -3.053000000
C    -2.405000000    -0.642000000    -3.755000000
H    -1.585000000    -0.730000000    -4.464000000
C    -3.014000000     0.613000000    -3.675000000
O    -2.469000000     1.683000000    -4.264000000
C    -1.548000000     2.461000000    -3.536000000
C    -0.263000000     2.720000000    -4.301000000
C     0.205000000     1.739000000    -5.142000000
H    -0.382000000     0.847000000    -5.348000000
C     0.522000000     3.841000000    -4.064000000
H     0.019000000     4.647000000    -3.536000000
O    -2.041000000     3.716000000    -2.986000000
H    -1.138000000     1.893000000    -2.688000000
C    -4.095000000     0.755000000    -2.814000000
C    -4.629000000     2.181000000    -2.568000000
H    -5.700000000     2.014000000    -2.439000000
H    -4.639000000     2.798000000    -3.469000000
C    -3.793000000     2.855000000    -1.495000000
C    -2.723000000     3.703000000    -1.763000000
C    -2.031000000     4.302000000    -0.735000000
H    -1.170000000     4.950000000    -0.882000000
C    -2.353000000     3.968000000     0.566000000
O    -1.397000000     4.229000000     1.528000000
C    -0.699000000     3.107000000     2.159000000
H    -0.769000000     2.191000000     1.555000000
C     0.797000000     3.470000000     2.241000000
C     1.527000000     3.227000000     3.427000000
H     1.073000000     2.624000000     4.209000000
C     1.411000000     4.163000000     1.193000000
H     0.855000000     4.503000000     0.322000000
C     2.769000000     4.566000000     1.293000000
O     3.345000000     5.323000000     0.262000000
C     3.495000000     4.331000000     2.403000000
H     4.510000000     4.708000000     2.501000000
C     2.865000000     3.611000000     3.430000000
O     3.618000000     3.221000000     4.584000000
C     3.215000000     2.285000000     5.564000000
C     3.364000000     0.930000000     5.393000000
H     3.780000000     0.559000000     4.460000000
C     2.878000000     2.794000000     6.829000000
H     2.629000000     3.849000000     6.906000000
C     2.600000000     1.900000000     7.840000000
H     2.345000000     2.262000000     8.833000000
C     2.884000000     0.527000000     7.707000000
H     2.578000000    -0.101000000     8.540000000
C     3.267000000     0.060000000     6.454000000
O     3.547000000    -1.237000000     6.220000000
C     2.800000000    -2.098000000     5.480000000
C     3.401000000    -3.200000000     4.941000000
H     4.453000000    -3.379000000     5.149000000
C     2.689000000    -4.050000000     4.098000000
O     3.272000000    -5.214000000     3.619000000
C     3.044000000    -5.835000000     2.419000000
C     3.046000000    -5.021000000     1.253000000
H     3.120000000    -3.936000000     1.251000000
C     3.014000000    -7.242000000     2.309000000
H     3.162000000    -7.814000000     3.221000000
C     3.195000000    -7.838000000     1.114000000
H     3.165000000    -8.924000000     1.097000000
C     3.192000000    -7.060000000    -0.047000000
H     3.340000000    -7.513000000    -1.024000000
C     3.160000000    -5.641000000    -0.012000000
O     3.359000000    -4.931000000    -1.201000000
C     2.392000000    -4.599000000    -2.099000000
C     2.707000000    -4.409000000    -3.440000000
H     3.712000000    -4.669000000    -3.760000000
C     1.755000000    -3.968000000    -4.289000000
O     2.071000000    -3.794000000    -5.612000000
C     1.672000000    -2.624000000    -6.302000000
C     2.094000000    -1.375000000    -6.036000000
H     2.766000000    -1.300000000    -5.185000000
C     0.723000000    -2.832000000    -7.320000000
H     0.371000000    -3.839000000    -7.526000000
C     0.337000000    -1.779000000    -8.142000000
H    -0.319000000    -1.938000000    -8.994000000
C     0.718000000    -0.477000000    -7.781000000
H     0.418000000     0.432000000    -8.298000000
C     1.557000000    -0.253000000    -6.683000000
O     2.142000000     0.971000000    -6.426000000
C     1.486000000     1.949000000    -5.732000000
C     2.248000000     3.082000000    -5.419000000
H     3.310000000     3.120000000    -5.647000000
C     1.697000000     4.101000000    -4.691000000
O     2.466000000     5.195000000    -4.349000000
C     2.165000000     5.796000000    -3.153000000
C     1.510000000     6.992000000    -3.069000000
H     1.016000000     7.319000000    -3.981000000
C     1.373000000     7.604000000    -1.813000000
H     0.766000000     8.503000000    -1.748000000
C     1.987000000     7.051000000    -0.666000000
H     1.920000000     7.563000000     0.291000000
C     2.708000000     5.838000000    -0.758000000
C     2.859000000     5.286000000    -2.025000000
H     3.497000000     4.414000000    -2.141000000
O     7.788000000     0.878000000     5.151000000
H     7.403000000     0.152000000     4.660000000
H     8.588000000     0.513000000     5.529000000
O     6.382000000    -6.264000000     1.484000000
H     5.444000000    -6.412000000     1.367000000
H     6.502000000    -5.332000000     1.299000000
O     7.670000000    -3.713000000     3.881000000
H     8.186000000    -4.249000000     4.483000000
H     8.221000000    -2.949000000     3.708000000
O     7.216000000    -5.193000000    -1.481000000
H     6.619000000    -5.929000000    -1.615000000
H     6.671000000    -4.416000000    -1.605000000
O     6.353000000    -1.810000000     6.899000000
H     6.012000000    -1.286000000     6.174000000
H     7.065000000    -2.319000000     6.512000000
O     5.456000000     3.213000000    -0.019000000
H     4.990000000     4.049000000    -0.024000000
H     5.276000000     2.844000000     0.846000000
O     7.182000000     0.418000000     1.214000000
H     6.435000000    -0.179000000     1.251000000
H     7.572000000     0.261000000     0.354000000
O     8.709000000    -3.195000000    -0.488000000
H     7.969000000    -2.903000000     0.043000000
H     8.433000000    -4.041000000    -0.841000000
O     3.702000000     0.663000000    -3.782000000
H     4.364000000     0.702000000    -3.092000000
H     2.878000000     0.529000000    -3.315000000
O     8.719000000    -2.073000000    -3.194000000
H     8.617000000    -2.294000000    -2.268000000
H     8.013000000    -1.451000000    -3.371000000
O     5.785000000     2.090000000     2.753000000
H     6.012000000     1.895000000     3.662000000
H     6.490000000     1.695000000     2.240000000
O     9.379000000    -1.494000000     3.719000000
H     9.670000000    -0.890000000     3.036000000
H     9.801000000    -1.174000000     4.517000000
O     5.688000000    -2.940000000    -2.245000000
H     5.885000000    -2.285000000    -2.915000000
H     5.371000000    -2.431000000    -1.499000000
O     6.560000000    -3.491000000     1.357000000
H     5.962000000    -2.759000000     1.207000000
H     6.736000000    -3.467000000     2.297000000
O     5.607000000    -6.450000000     4.638000000
H     5.952000000    -5.711000000     4.139000000
H     4.678000000    -6.249000000     4.753000000
O     6.189000000    -1.356000000     4.178000000
H     5.820000000    -1.120000000     3.327000000
H     6.489000000    -2.258000000     4.068000000
O     7.961000000     4.317000000    -0.284000000
H     7.713000000     5.234000000    -0.169000000
H     7.136000000     3.836000000    -0.218000000
O     6.544000000    -0.441000000    -3.725000000
H     6.245000000     0.095000000    -2.991000000
H     6.238000000     0.025000000    -4.503000000
O     5.574000000     0.904000000    -1.797000000
H     5.766000000     1.712000000    -1.321000000
H     5.543000000     0.229000000    -1.119000000
