201
-1256.03171
C     1.600000000    -3.459000000     3.792000000
H     1.140000000    -4.111000000     3.054000000
C     0.911000000    -2.306000000     4.184000000
C     1.537000000    -1.423000000     5.078000000
H     0.985000000    -0.565000000     5.452000000
C    -0.472000000    -2.080000000     3.629000000
O    -1.288000000    -3.300000000     3.501000000
H    -0.269000000    -1.800000000     2.585000000
O    -1.124000000    -1.087000000     4.451000000
C    -2.104000000    -0.240000000     3.992000000
C    -1.683000000     1.072000000     4.037000000
H    -0.657000000     1.269000000     4.337000000
C    -2.420000000     2.040000000     3.457000000
O    -1.822000000     3.282000000     3.280000000
C    -3.652000000     1.752000000     2.833000000
C    -4.381000000     2.917000000     2.057000000
H    -5.440000000     2.697000000     1.905000000
C    -3.847000000     3.124000000     0.674000000
C    -4.378000000     2.334000000    -0.358000000
H    -5.240000000     1.760000000    -0.028000000
H    -4.243000000     3.856000000     2.598000000
C    -4.135000000     0.459000000     2.922000000
H    -5.081000000     0.179000000     2.464000000
C    -3.306000000    -0.593000000     3.412000000
C    -3.931000000    -1.979000000     3.391000000
H    -4.978000000    -1.789000000     3.148000000
H    -3.798000000    -2.406000000     4.387000000
C    -3.349000000    -2.798000000     2.303000000
C    -4.088000000    -2.902000000     1.094000000
H    -5.072000000    -2.442000000     1.034000000
C    -2.095000000    -3.470000000     2.426000000
C    -1.595000000    -4.172000000     1.341000000
H    -0.645000000    -4.699000000     1.367000000
C    -2.255000000    -4.211000000     0.114000000
O    -1.588000000    -4.737000000    -0.991000000
C    -0.923000000    -3.782000000    -1.813000000
C     0.523000000    -4.173000000    -2.118000000
C     1.096000000    -3.597000000    -3.290000000
H     0.518000000    -3.065000000    -4.041000000
C     1.288000000    -4.918000000    -1.238000000
H     0.872000000    -5.120000000    -0.254000000
O    -1.688000000    -3.496000000    -3.008000000
H    -0.893000000    -2.854000000    -1.224000000
C    -3.477000000    -3.586000000     0.002000000
C    -4.146000000    -3.450000000    -1.350000000
H    -5.217000000    -3.348000000    -1.168000000
H    -3.981000000    -4.390000000    -1.882000000
C    -3.706000000    -2.258000000    -2.247000000
C    -4.444000000    -1.056000000    -2.189000000
H    -5.365000000    -1.088000000    -1.612000000
C    -2.545000000    -2.369000000    -3.013000000
C    -2.079000000    -1.253000000    -3.704000000
H    -1.164000000    -1.408000000    -4.271000000
C    -2.710000000    -0.029000000    -3.603000000
O    -2.247000000     1.043000000    -4.336000000
C    -1.566000000     1.975000000    -3.541000000
C    -0.204000000     2.362000000    -4.198000000
C     0.582000000     1.412000000    -4.860000000
H     0.316000000     0.358000000    -4.858000000
C     0.111000000     3.692000000    -4.115000000
H    -0.434000000     4.436000000    -3.540000000
O    -2.441000000     3.089000000    -3.295000000
H    -1.502000000     1.448000000    -2.578000000
C    -3.943000000     0.043000000    -2.899000000
C    -4.615000000     1.371000000    -2.698000000
H    -5.669000000     1.263000000    -2.434000000
H    -4.719000000     1.900000000    -3.648000000
C    -3.944000000     2.292000000    -1.687000000
C    -2.928000000     3.207000000    -2.017000000
C    -2.303000000     3.996000000    -1.066000000
H    -1.471000000     4.649000000    -1.316000000
C    -2.738000000     3.888000000     0.271000000
O    -1.919000000     4.504000000     1.238000000
C    -1.171000000     3.596000000     2.024000000
H    -1.148000000     2.738000000     1.337000000
C     0.312000000     4.037000000     2.023000000
C     1.203000000     3.544000000     3.011000000
H     0.847000000     3.042000000     3.907000000
C     0.740000000     4.847000000     0.991000000
H     0.028000000     5.206000000     0.252000000
C     2.087000000     5.259000000     0.997000000
O     2.638000000     6.020000000     0.053000000
C     2.985000000     4.796000000     1.957000000
H     3.883000000     5.401000000     2.057000000
C     2.539000000     3.946000000     2.929000000
O     3.514000000     3.509000000     3.774000000
C     3.157000000     2.776000000     4.910000000
C     3.506000000     1.444000000     5.037000000
H     3.917000000     0.981000000     4.144000000
C     2.629000000     3.461000000     6.051000000
H     2.367000000     4.510000000     5.936000000
C     2.355000000     2.715000000     7.219000000
H     1.934000000     3.299000000     8.033000000
C     2.698000000     1.390000000     7.331000000
H     2.358000000     0.839000000     8.203000000
C     3.131000000     0.744000000     6.211000000
O     3.461000000    -0.626000000     6.299000000
C     2.836000000    -1.553000000     5.442000000
C     3.497000000    -2.701000000     5.140000000
H     4.525000000    -2.806000000     5.478000000
C     2.903000000    -3.653000000     4.228000000
O     3.599000000    -4.748000000     3.912000000
C     3.203000000    -5.688000000     2.942000000
C     3.129000000    -5.318000000     1.594000000
H     3.141000000    -4.267000000     1.320000000
C     3.386000000    -7.027000000     3.284000000
H     3.536000000    -7.339000000     4.314000000
C     3.344000000    -8.020000000     2.329000000
H     3.701000000    -8.979000000     2.696000000
C     3.310000000    -7.682000000     0.931000000
H     3.361000000    -8.518000000     0.238000000
C     3.198000000    -6.317000000     0.571000000
O     3.447000000    -5.920000000    -0.711000000
C     2.620000000    -5.204000000    -1.549000000
C     3.127000000    -4.686000000    -2.728000000
H     4.202000000    -4.822000000    -2.807000000
C     2.420000000    -3.882000000    -3.559000000
O     3.013000000    -3.540000000    -4.791000000
C     2.501000000    -2.568000000    -5.640000000
C     2.865000000    -1.227000000    -5.511000000
H     3.544000000    -0.842000000    -4.755000000
C     1.565000000    -2.947000000    -6.622000000
H     1.229000000    -3.979000000    -6.678000000
C     1.051000000    -2.006000000    -7.509000000
H     0.338000000    -2.180000000    -8.311000000
C     1.389000000    -0.681000000    -7.359000000
H     0.934000000     0.107000000    -7.953000000
C     2.290000000    -0.265000000    -6.315000000
O     2.615000000     1.042000000    -6.111000000
C     1.768000000     1.894000000    -5.435000000
C     2.090000000     3.244000000    -5.475000000
H     2.981000000     3.561000000    -6.012000000
C     1.242000000     4.145000000    -4.769000000
O     1.750000000     5.390000000    -4.661000000
C     1.610000000     6.118000000    -3.461000000
C     0.949000000     7.300000000    -3.526000000
H     0.477000000     7.660000000    -4.437000000
C     0.733000000     8.090000000    -2.374000000
H     0.119000000     8.978000000    -2.499000000
C     1.174000000     7.657000000    -1.150000000
H     1.133000000     8.166000000    -0.190000000
C     1.974000000     6.438000000    -1.081000000
C     2.106000000     5.629000000    -2.221000000
H     2.569000000     4.646000000    -2.180000000
O     6.598000000     1.830000000     5.319000000
H     6.543000000     1.072000000     4.737000000
H     7.509000000     1.842000000     5.611000000
O     6.425000000    -6.669000000     0.635000000
H     6.460000000    -6.310000000    -0.252000000
H     6.144000000    -5.933000000     1.179000000
O     8.318000000    -2.554000000     4.860000000
H     7.954000000    -3.017000000     5.614000000
H     8.783000000    -1.808000000     5.239000000
O     6.878000000    -6.128000000    -2.077000000
H     6.272000000    -6.781000000    -2.426000000
H     6.766000000    -5.368000000    -2.649000000
O    10.069000000    -4.375000000    -1.732000000
H     9.584000000    -3.871000000    -1.078000000
H    10.297000000    -3.736000000    -2.407000000
O     8.386000000    -0.966000000     1.473000000
H     8.833000000    -1.040000000     2.316000000
H     7.570000000    -1.453000000     1.591000000
O     7.646000000    -4.091000000     0.049000000
H     7.540000000    -4.769000000    -0.618000000
H     6.954000000    -3.458000000    -0.140000000
O     3.679000000     1.821000000    -2.033000000
H     4.556000000     1.670000000    -1.682000000
H     3.106000000     1.282000000    -1.487000000
O     8.911000000    -1.791000000    -1.418000000
H     8.373000000    -1.842000000    -0.628000000
H     8.369000000    -2.183000000    -2.103000000
O     4.846000000     2.109000000     0.709000000
H     4.555000000     1.480000000     1.369000000
H     5.134000000     2.870000000     1.214000000
O     9.143000000    -4.640000000     3.103000000
H     8.477000000    -4.100000000     3.528000000
H     8.695000000    -5.023000000     2.348000000
O     6.239000000    -2.856000000    -2.795000000
H     5.932000000    -2.264000000    -3.483000000
H     5.985000000    -2.425000000    -1.979000000
O     8.663000000     1.134000000    -3.386000000
H     8.591000000     1.932000000    -2.862000000
H     8.131000000     0.491000000    -2.916000000
O    10.683000000    -2.629000000     1.318000000
H     9.892000000    -2.499000000     0.796000000
H    10.648000000    -3.548000000     1.583000000
O     6.107000000    -4.268000000     3.006000000
H     6.131000000    -3.372000000     2.672000000
H     5.175000000    -4.476000000     3.067000000
O     6.341000000    -0.381000000     3.994000000
H     6.162000000    -0.766000000     3.136000000
H     6.670000000    -1.110000000     4.520000000
O     8.773000000     2.112000000     1.052000000
H     8.794000000     2.053000000     0.097000000
H     8.739000000     1.202000000     1.348000000
O     5.834000000    -0.143000000    -4.147000000
H     5.853000000     0.194000000    -3.252000000
H     6.554000000     0.307000000    -4.589000000
O     6.121000000     0.471000000    -1.497000000
H     6.039000000    -0.290000000    -0.924000000
H     6.094000000     1.222000000    -0.904000000
