201
-1259.79448
C    -4.116000000    -0.927000000    -1.870000000
H    -3.950000000    -0.040000000    -2.476000000
C    -4.424000000    -0.841000000    -0.485000000
C    -4.743000000    -2.049000000     0.204000000
H    -4.808000000    -2.055000000     1.289000000
C    -4.143000000     0.399000000     0.329000000
O    -4.675000000     1.534000000    -0.330000000
H    -3.043000000     0.396000000     0.345000000
O    -4.660000000     0.307000000     1.661000000
C    -3.780000000     0.566000000     2.635000000
C    -3.165000000    -0.431000000     3.348000000
H    -3.498000000    -1.465000000     3.303000000
C    -2.116000000    -0.136000000     4.260000000
O    -1.426000000    -1.198000000     4.816000000
C    -1.725000000     1.239000000     4.445000000
C    -0.596000000     1.731000000     5.297000000
H    -0.756000000     2.742000000     5.677000000
C     0.683000000     1.642000000     4.631000000
C     1.263000000     2.825000000     4.108000000
H     0.752000000     3.781000000     4.183000000
H    -0.581000000     1.114000000     6.197000000
C    -2.298000000     2.248000000     3.671000000
H    -1.890000000     3.256000000     3.710000000
C    -3.328000000     1.888000000     2.811000000
C    -3.889000000     3.101000000     2.043000000
H    -3.799000000     3.974000000     2.692000000
H    -4.969000000     2.940000000     2.008000000
C    -3.324000000     3.355000000     0.678000000
C    -2.426000000     4.381000000     0.527000000
H    -2.031000000     4.921000000     1.385000000
C    -3.830000000     2.679000000    -0.436000000
C    -3.177000000     2.960000000    -1.652000000
H    -3.484000000     2.373000000    -2.514000000
C    -2.138000000     3.904000000    -1.771000000
O    -1.413000000     3.967000000    -2.942000000
C    -0.239000000     3.203000000    -2.986000000
C    -0.095000000     2.548000000    -4.295000000
C     1.137000000     2.005000000    -4.626000000
H     1.997000000     2.063000000    -3.964000000
C    -1.257000000     2.271000000    -5.034000000
H    -2.218000000     2.762000000    -4.900000000
O     0.829000000     4.071000000    -2.746000000
H    -0.179000000     2.408000000    -2.228000000
C    -1.833000000     4.697000000    -0.664000000
C    -0.632000000     5.663000000    -0.708000000
H    -0.852000000     6.447000000     0.019000000
H    -0.681000000     6.264000000    -1.619000000
C     0.763000000     5.076000000    -0.519000000
C     1.295000000     4.984000000     0.789000000
H     0.825000000     5.550000000     1.589000000
C     1.335000000     4.191000000    -1.481000000
C     2.527000000     3.535000000    -1.226000000
H     3.038000000     2.981000000    -2.009000000
C     2.995000000     3.451000000     0.068000000
O     4.098000000     2.718000000     0.348000000
C     3.962000000     1.369000000     0.887000000
C     4.835000000     0.359000000     0.242000000
C     5.172000000     0.463000000    -1.138000000
H     4.896000000     1.379000000    -1.652000000
C     5.236000000    -0.844000000     0.954000000
H     5.104000000    -0.927000000     2.030000000
O     4.196000000     1.440000000     2.319000000
H     2.910000000     1.047000000     0.874000000
C     2.345000000     4.151000000     1.115000000
C     2.811000000     4.081000000     2.593000000
H     2.503000000     4.964000000     3.157000000
H     3.893000000     4.062000000     2.453000000
C     2.411000000     2.808000000     3.323000000
C     3.117000000     1.568000000     3.128000000
C     2.580000000     0.405000000     3.660000000
H     3.136000000    -0.527000000     3.591000000
C     1.372000000     0.427000000     4.361000000
O     0.880000000    -0.768000000     4.793000000
C    -0.192000000    -1.454000000     4.065000000
H    -0.232000000    -1.017000000     3.057000000
C    -0.047000000    -2.991000000     3.776000000
C    -1.081000000    -3.946000000     3.844000000
H    -2.024000000    -3.551000000     4.211000000
C     1.220000000    -3.380000000     3.295000000
H     2.002000000    -2.658000000     3.073000000
C     1.363000000    -4.696000000     2.943000000
O     2.527000000    -5.035000000     2.259000000
C     0.346000000    -5.618000000     3.073000000
H     0.435000000    -6.596000000     2.607000000
C    -0.880000000    -5.276000000     3.607000000
O    -1.998000000    -6.097000000     3.377000000
C    -3.233000000    -5.657000000     3.066000000
C    -3.583000000    -5.225000000     1.775000000
H    -2.860000000    -5.308000000     0.967000000
C    -4.261000000    -5.674000000     4.071000000
H    -3.952000000    -6.043000000     5.046000000
C    -5.579000000    -5.291000000     3.669000000
H    -6.330000000    -5.403000000     4.448000000
C    -5.818000000    -4.717000000     2.399000000
H    -6.832000000    -4.399000000     2.171000000
C    -4.839000000    -4.702000000     1.434000000
O    -5.110000000    -4.390000000     0.119000000
C    -4.695000000    -3.247000000    -0.510000000
C    -4.408000000    -3.350000000    -1.883000000
H    -4.553000000    -4.315000000    -2.361000000
C    -4.259000000    -2.155000000    -2.580000000
O    -4.205000000    -2.280000000    -3.930000000
C    -4.327000000    -1.227000000    -4.866000000
C    -3.166000000    -0.551000000    -5.326000000
H    -2.173000000    -0.797000000    -4.960000000
C    -5.577000000    -0.860000000    -5.379000000
H    -6.439000000    -1.399000000    -4.996000000
C    -5.660000000     0.063000000    -6.377000000
H    -6.576000000     0.321000000    -6.902000000
C    -4.554000000     0.668000000    -6.870000000
H    -4.619000000     1.303000000    -7.749000000
C    -3.277000000     0.392000000    -6.410000000
O    -2.112000000     1.019000000    -6.906000000
C    -1.072000000     1.343000000    -6.078000000
C     0.142000000     0.816000000    -6.469000000
H     0.235000000     0.080000000    -7.264000000
C     1.217000000     1.057000000    -5.622000000
O     2.390000000     0.367000000    -5.797000000
C     3.632000000     0.777000000    -5.288000000
C     4.384000000    -0.006000000    -4.450000000
H     3.879000000    -0.890000000    -4.071000000
C     4.258000000     1.892000000    -5.927000000
H     3.800000000     2.526000000    -6.682000000
C     5.488000000     2.337000000    -5.412000000
H     6.011000000     3.229000000    -5.746000000
C     6.138000000     1.559000000    -4.491000000
H     7.126000000     1.823000000    -4.122000000
C     5.614000000     0.362000000    -4.017000000
O     6.305000000    -0.422000000    -3.058000000
C     5.876000000    -0.592000000    -1.778000000
C     6.484000000    -1.566000000    -1.038000000
H     7.312000000    -2.129000000    -1.462000000
C     6.102000000    -1.716000000     0.317000000
O     6.592000000    -2.818000000     0.940000000
C     5.753000000    -3.439000000     1.840000000
C     6.337000000    -3.627000000     3.084000000
H     7.366000000    -3.392000000     3.343000000
C     5.577000000    -4.161000000     4.123000000
H     5.993000000    -4.251000000     5.124000000
C     4.226000000    -4.506000000     3.892000000
H     3.579000000    -4.808000000     4.712000000
C     3.719000000    -4.357000000     2.603000000
C     4.410000000    -3.754000000     1.559000000
H     3.954000000    -3.570000000     0.590000000
O     1.758000000    -7.144000000    -2.762000000
H     1.841000000    -6.415000000    -2.146000000
H     1.180000000    -6.812000000    -3.449000000
O     4.350000000    -7.432000000     0.913000000
H     4.358000000    -6.941000000     0.091000000
H     4.944000000    -6.947000000     1.487000000
O     1.631000000    -7.622000000     0.432000000
H     1.421000000    -6.804000000    -0.019000000
H     2.573000000    -7.570000000     0.596000000
O    -2.348000000    -8.163000000    -0.004000000
H    -1.594000000    -8.612000000    -0.387000000
H    -2.271000000    -7.260000000    -0.313000000
O    -0.067000000    -6.139000000    -4.746000000
H    -0.148000000    -5.189000000    -4.831000000
H    -0.514000000    -6.488000000    -5.517000000
O     6.148000000    -4.133000000    -3.163000000
H     6.055000000    -4.034000000    -4.110000000
H     6.776000000    -3.455000000    -2.912000000
O    -3.277000000    -5.771000000    -4.667000000
H    -3.061000000    -6.647000000    -4.348000000
H    -2.597000000    -5.208000000    -4.298000000
O     6.741000000    -7.845000000    -1.499000000
H     6.401000000    -8.392000000    -0.791000000
H     6.218000000    -7.044000000    -1.457000000
O     4.972000000    -5.626000000    -1.299000000
H     5.395000000    -5.144000000    -2.010000000
H     4.061000000    -5.334000000    -1.320000000
O    -0.472000000    -9.171000000     1.820000000
H    -0.938000000    -8.337000000     1.763000000
H     0.442000000    -8.946000000     1.643000000
O     3.509000000    -6.245000000    -5.936000000
H     3.344000000    -7.063000000    -5.467000000
H     3.308000000    -5.559000000    -5.300000000
O     3.785000000    -9.179000000    -1.780000000
H     3.268000000    -8.482000000    -2.183000000
H     3.367000000    -9.327000000    -0.931000000
O    -1.312000000    -3.759000000    -3.622000000
H    -0.634000000    -3.117000000    -3.833000000
H    -2.015000000    -3.244000000    -3.225000000
O    -0.244000000    -9.215000000    -1.859000000
H     0.269000000    -8.484000000    -1.516000000
H     0.096000000    -9.353000000    -2.743000000
O     2.345000000    -4.094000000    -4.211000000
H     2.449000000    -4.483000000    -3.342000000
H     1.704000000    -3.394000000    -4.085000000
O     1.488000000    -9.438000000    -4.222000000
H     2.026000000    -9.913000000    -4.855000000
H     2.096000000    -8.833000000    -3.798000000
O    -1.659000000    -5.941000000    -1.280000000
H    -1.618000000    -5.631000000    -2.185000000
H    -0.772000000    -5.812000000    -0.943000000
O     2.763000000    -7.282000000     4.387000000
H     2.878000000    -7.067000000     3.461000000
H     2.032000000    -6.732000000     4.671000000
O     0.713000000    -2.097000000    -4.437000000
H     0.362000000    -2.107000000    -5.327000000
H     1.022000000    -1.199000000    -4.311000000
