201
-1265.38620
C     2.831000000    -4.005000000     1.648000000
H     2.316000000    -4.420000000     0.786000000
C     2.042000000    -3.410000000     2.638000000
C     2.662000000    -2.632000000     3.689000000
H     2.052000000    -2.029000000     4.357000000
C     0.560000000    -3.289000000     2.496000000
O     0.054000000    -4.503000000     1.979000000
H     0.380000000    -2.518000000     1.733000000
O     0.011000000    -2.983000000     3.797000000
C    -1.149000000    -2.231000000     4.001000000
C    -0.984000000    -0.901000000     4.460000000
H    -0.052000000    -0.695000000     4.981000000
C    -1.883000000     0.079000000     4.227000000
O    -1.529000000     1.363000000     4.547000000
C    -3.169000000    -0.249000000     3.603000000
C    -4.285000000     0.809000000     3.419000000
H    -5.231000000     0.320000000     3.177000000
C    -4.072000000     1.687000000     2.219000000
C    -4.732000000     1.252000000     1.066000000
H    -5.387000000     0.387000000     1.003000000
H    -4.386000000     1.360000000     4.356000000
C    -3.383000000    -1.597000000     3.288000000
H    -4.355000000    -1.808000000     2.851000000
C    -2.385000000    -2.583000000     3.400000000
C    -2.647000000    -3.954000000     2.860000000
H    -3.724000000    -4.117000000     2.799000000
H    -2.148000000    -4.730000000     3.445000000
C    -2.248000000    -4.075000000     1.354000000
C    -3.197000000    -3.942000000     0.331000000
H    -4.243000000    -3.791000000     0.586000000
C    -0.937000000    -4.392000000     1.028000000
C    -0.492000000    -4.483000000    -0.325000000
H     0.553000000    -4.718000000    -0.508000000
C    -1.412000000    -4.155000000    -1.303000000
O    -0.966000000    -4.195000000    -2.608000000
C    -0.738000000    -2.878000000    -3.208000000
C     0.617000000    -2.981000000    -3.924000000
C     0.903000000    -1.979000000    -4.916000000
H     0.157000000    -1.198000000    -5.040000000
C     1.625000000    -3.979000000    -3.727000000
H     1.510000000    -4.799000000    -3.022000000
O    -1.790000000    -2.405000000    -4.050000000
H    -0.621000000    -2.202000000    -2.349000000
C    -2.796000000    -3.892000000    -0.994000000
C    -3.816000000    -3.445000000    -2.061000000
H    -4.833000000    -3.649000000    -1.717000000
H    -3.772000000    -4.129000000    -2.911000000
C    -3.600000000    -1.966000000    -2.517000000
C    -4.318000000    -1.073000000    -1.778000000
H    -5.082000000    -1.376000000    -1.067000000
C    -2.649000000    -1.522000000    -3.454000000
C    -2.485000000    -0.128000000    -3.681000000
H    -1.767000000     0.175000000    -4.439000000
C    -3.176000000     0.762000000    -2.977000000
O    -2.834000000     2.018000000    -3.185000000
C    -2.285000000     2.735000000    -2.048000000
C    -1.143000000     3.590000000    -2.516000000
C    -0.242000000     3.075000000    -3.422000000
H    -0.393000000     2.051000000    -3.753000000
C    -0.991000000     4.870000000    -2.061000000
H    -1.615000000     5.266000000    -1.264000000
O    -3.275000000     3.479000000    -1.315000000
H    -1.761000000     1.994000000    -1.426000000
C    -4.191000000     0.308000000    -2.082000000
C    -5.054000000     1.344000000    -1.408000000
H    -6.062000000     0.947000000    -1.268000000
H    -5.306000000     2.162000000    -2.087000000
C    -4.506000000     1.871000000    -0.117000000
C    -3.651000000     2.960000000    -0.119000000
C    -2.948000000     3.383000000     0.972000000
H    -2.305000000     4.260000000     0.997000000
C    -3.185000000     2.817000000     2.200000000
O    -2.320000000     3.193000000     3.161000000
C    -1.286000000     2.254000000     3.401000000
H    -1.185000000     1.601000000     2.521000000
C     0.030000000     2.970000000     3.615000000
C     1.159000000     2.374000000     4.151000000
H     1.184000000     1.341000000     4.488000000
C     0.087000000     4.286000000     3.056000000
H    -0.677000000     4.632000000     2.365000000
C     1.208000000     5.075000000     3.228000000
O     1.215000000     6.392000000     2.773000000
C     2.360000000     4.435000000     3.766000000
H     3.241000000     5.061000000     3.881000000
C     2.268000000     3.163000000     4.253000000
O     3.501000000     2.682000000     4.832000000
C     3.619000000     1.452000000     5.446000000
C     4.141000000     0.375000000     4.758000000
H     4.406000000     0.398000000     3.704000000
C     3.177000000     1.301000000     6.802000000
H     2.844000000     2.151000000     7.392000000
C     3.090000000     0.065000000     7.356000000
H     2.654000000    -0.042000000     8.346000000
C     3.590000000    -1.064000000     6.621000000
H     3.527000000    -2.055000000     7.064000000
C     4.215000000    -0.886000000     5.396000000
O     4.780000000    -1.929000000     4.736000000
C     4.052000000    -2.600000000     3.770000000
C     4.834000000    -3.259000000     2.780000000
H     5.914000000    -3.178000000     2.881000000
C     4.228000000    -3.934000000     1.728000000
O     5.117000000    -4.484000000     0.747000000
C     4.666000000    -5.188000000    -0.372000000
C     4.242000000    -4.545000000    -1.551000000
H     4.167000000    -3.466000000    -1.661000000
C     4.658000000    -6.555000000    -0.236000000
H     5.003000000    -6.998000000     0.695000000
C     4.330000000    -7.311000000    -1.352000000
H     4.321000000    -8.387000000    -1.197000000
C     4.029000000    -6.724000000    -2.584000000
H     3.884000000    -7.354000000    -3.458000000
C     4.049000000    -5.322000000    -2.750000000
O     3.881000000    -4.705000000    -3.981000000
C     2.860000000    -3.827000000    -4.321000000
C     3.119000000    -2.814000000    -5.257000000
H     4.100000000    -2.804000000    -5.726000000
C     2.127000000    -1.861000000    -5.582000000
O     2.316000000    -0.937000000    -6.614000000
C     1.573000000     0.212000000    -6.672000000
C     1.832000000     1.241000000    -5.801000000
H     2.627000000     1.052000000    -5.083000000
C     0.552000000     0.329000000    -7.680000000
H     0.416000000    -0.515000000    -8.352000000
C    -0.244000000     1.409000000    -7.668000000
H    -1.034000000     1.501000000    -8.409000000
C     0.024000000     2.501000000    -6.836000000
H    -0.640000000     3.353000000    -6.954000000
C     1.061000000     2.359000000    -5.850000000
O     1.453000000     3.368000000    -5.052000000
C     0.765000000     3.889000000    -3.984000000
C     1.010000000     5.186000000    -3.484000000
H     1.795000000     5.787000000    -3.935000000
C     0.152000000     5.653000000    -2.507000000
O     0.363000000     6.871000000    -1.918000000
C     0.077000000     7.215000000    -0.606000000
C    -1.051000000     7.895000000    -0.318000000
H    -1.761000000     8.150000000    -1.101000000
C    -1.370000000     8.174000000     0.967000000
H    -2.318000000     8.673000000     1.151000000
C    -0.563000000     7.649000000     2.008000000
H    -0.886000000     7.871000000     3.022000000
C     0.507000000     6.939000000     1.711000000
C     0.947000000     6.791000000     0.393000000
H     1.831000000     6.192000000     0.190000000
O     9.356000000     3.685000000     1.678000000
H     8.890000000     3.851000000     2.498000000
H     8.708000000     3.857000000     0.995000000
O     5.140000000     6.052000000     0.250000000
H     5.038000000     6.998000000     0.149000000
H     4.277000000     5.747000000     0.532000000
O     6.787000000     1.405000000     3.226000000
H     7.736000000     1.425000000     3.103000000
H     6.475000000     0.765000000     2.585000000
O     9.481000000     0.862000000     2.259000000
H     9.374000000     0.295000000     1.495000000
H     9.464000000     1.750000000     1.902000000
O     7.707000000     6.331000000     1.460000000
H     7.693000000     6.165000000     2.402000000
H     6.814000000     6.145000000     1.170000000
O     6.763000000    -2.762000000    -2.559000000
H     7.110000000    -2.729000000    -3.450000000
H     6.914000000    -1.883000000    -2.210000000
O     3.256000000     4.166000000     0.559000000
H     2.500000000     3.887000000     1.076000000
H     3.745000000     3.359000000     0.397000000
O     6.844000000     0.125000000    -1.800000000
H     5.975000000     0.469000000    -1.593000000
H     6.999000000     0.393000000    -2.706000000
O     6.221000000     0.089000000     1.123000000
H     5.520000000     0.707000000     0.917000000
H     6.744000000     0.044000000     0.322000000
O     7.198000000     5.022000000     3.933000000
H     7.846000000     4.361000000     4.176000000
H     6.521000000     4.534000000     3.466000000
O     7.595000000    -1.475000000    -4.883000000
H     7.958000000    -1.546000000    -5.766000000
H     6.671000000    -1.267000000    -5.019000000
O     5.579000000     3.586000000     2.434000000
H     5.000000000     3.181000000     1.789000000
H     5.880000000     2.857000000     2.977000000
O     6.088000000     3.902000000    -0.849000000
H     5.923000000     3.020000000    -0.516000000
H     5.511000000     4.466000000    -0.333000000
O     9.289000000    -0.675000000    -0.180000000
H     8.935000000    -0.026000000    -0.789000000
H    10.226000000    -0.699000000    -0.373000000
O     5.366000000    -0.201000000    -6.914000000
H     5.041000000     0.540000000    -7.424000000
H     5.270000000     0.074000000    -6.002000000
O     8.835000000     4.477000000    -1.311000000
H     7.904000000     4.410000000    -1.101000000
H     9.051000000     5.396000000    -1.153000000
O     5.463000000     4.089000000    -3.840000000
H     5.701000000     3.848000000    -2.945000000
H     4.900000000     4.857000000    -3.739000000
O     9.283000000     1.552000000    -2.092000000
H     9.261000000     1.380000000    -3.033000000
H     8.981000000     2.456000000    -2.006000000
O     5.498000000     1.282000000    -4.212000000
H     4.845000000     1.096000000    -3.537000000
H     5.511000000     2.237000000    -4.276000000
