201
-1259.62109
C     3.299000000    -4.031000000     1.684000000
H     3.175000000    -4.418000000     0.676000000
C     2.193000000    -3.820000000     2.463000000
C     2.405000000    -3.349000000     3.802000000
H     1.565000000    -3.327000000     4.491000000
C     0.775000000    -3.890000000     1.972000000
O     0.572000000    -5.029000000     1.065000000
H     0.590000000    -2.913000000     1.502000000
O    -0.161000000    -3.883000000     3.027000000
C    -1.385000000    -3.298000000     2.981000000
C    -1.536000000    -2.158000000     3.812000000
H    -0.741000000    -1.796000000     4.459000000
C    -2.702000000    -1.378000000     3.653000000
O    -2.670000000    -0.162000000     4.271000000
C    -3.652000000    -1.765000000     2.696000000
C    -4.893000000    -0.917000000     2.540000000
H    -5.688000000    -1.653000000     2.394000000
C    -4.686000000     0.076000000     1.375000000
C    -5.064000000    -0.302000000     0.064000000
H    -5.634000000    -1.195000000    -0.177000000
H    -5.174000000    -0.555000000     3.532000000
C    -3.497000000    -2.882000000     1.964000000
H    -4.243000000    -3.276000000     1.278000000
C    -2.382000000    -3.702000000     2.053000000
C    -2.332000000    -5.026000000     1.258000000
H    -3.294000000    -5.543000000     1.238000000
H    -1.800000000    -5.820000000     1.785000000
C    -1.580000000    -4.755000000    -0.027000000
C    -2.261000000    -4.433000000    -1.210000000
H    -3.345000000    -4.378000000    -1.152000000
C    -0.163000000    -4.807000000    -0.044000000
C     0.539000000    -4.483000000    -1.205000000
H     1.619000000    -4.372000000    -1.265000000
C    -0.176000000    -4.002000000    -2.312000000
O     0.631000000    -3.484000000    -3.322000000
C     0.572000000    -2.031000000    -3.347000000
C     1.852000000    -1.336000000    -3.535000000
C     2.015000000    -0.089000000    -4.097000000
H     1.067000000     0.328000000    -4.426000000
C     2.984000000    -2.010000000    -3.037000000
H     2.897000000    -3.012000000    -2.623000000
O    -0.277000000    -1.728000000    -4.486000000
H     0.058000000    -1.713000000    -2.428000000
C    -1.557000000    -4.047000000    -2.354000000
C    -2.261000000    -3.576000000    -3.600000000
H    -3.239000000    -4.048000000    -3.489000000
H    -1.794000000    -3.960000000    -4.510000000
C    -2.517000000    -2.069000000    -3.720000000
C    -3.635000000    -1.571000000    -3.054000000
H    -4.390000000    -2.216000000    -2.612000000
C    -1.533000000    -1.233000000    -4.187000000
C    -1.850000000     0.111000000    -4.299000000
H    -1.118000000     0.775000000    -4.751000000
C    -2.897000000     0.604000000    -3.710000000
O    -2.950000000     1.973000000    -3.740000000
C    -2.593000000     2.542000000    -2.473000000
C    -1.858000000     3.801000000    -2.663000000
C    -1.081000000     4.081000000    -3.797000000
H    -1.162000000     3.456000000    -4.682000000
C    -1.571000000     4.639000000    -1.554000000
H    -2.031000000     4.314000000    -0.624000000
O    -3.774000000     2.762000000    -1.741000000
H    -1.931000000     1.801000000    -2.001000000
C    -3.836000000    -0.212000000    -3.099000000
C    -5.124000000     0.261000000    -2.406000000
H    -5.923000000    -0.484000000    -2.394000000
H    -5.468000000     1.134000000    -2.966000000
C    -4.778000000     0.624000000    -1.008000000
C    -4.111000000     1.816000000    -0.764000000
C    -3.791000000     2.129000000     0.587000000
H    -3.391000000     3.131000000     0.719000000
C    -4.075000000     1.304000000     1.613000000
O    -3.589000000     1.655000000     2.872000000
C    -2.372000000     0.945000000     3.328000000
H    -1.934000000     0.529000000     2.408000000
C    -1.339000000     1.938000000     3.961000000
C    -0.239000000     1.520000000     4.710000000
H    -0.068000000     0.456000000     4.853000000
C    -1.474000000     3.342000000     3.711000000
H    -2.247000000     3.730000000     3.052000000
C    -0.632000000     4.262000000     4.338000000
O    -0.712000000     5.610000000     4.158000000
C     0.472000000     3.822000000     5.116000000
H     1.149000000     4.502000000     5.627000000
C     0.656000000     2.426000000     5.247000000
O     1.904000000     1.899000000     5.633000000
C     2.004000000     0.638000000     6.176000000
C     2.804000000    -0.280000000     5.513000000
H     3.335000000     0.112000000     4.649000000
C     1.260000000     0.270000000     7.315000000
H     0.516000000     0.981000000     7.665000000
C     1.441000000    -1.021000000     7.862000000
H     0.866000000    -1.253000000     8.755000000
C     2.292000000    -1.919000000     7.274000000
H     2.353000000    -2.885000000     7.768000000
C     2.969000000    -1.533000000     6.072000000
O     3.930000000    -2.317000000     5.462000000
C     3.678000000    -2.951000000     4.260000000
C     4.782000000    -3.114000000     3.430000000
H     5.782000000    -2.850000000     3.764000000
C     4.611000000    -3.675000000     2.126000000
O     5.814000000    -3.972000000     1.478000000
C     5.838000000    -4.192000000     0.106000000
C     5.369000000    -3.209000000    -0.778000000
H     4.969000000    -2.267000000    -0.411000000
C     6.496000000    -5.281000000    -0.396000000
H     7.108000000    -5.920000000     0.237000000
C     6.749000000    -5.378000000    -1.771000000
H     7.342000000    -6.156000000    -2.244000000
C     6.352000000    -4.384000000    -2.606000000
H     6.776000000    -4.396000000    -3.607000000
C     5.621000000    -3.282000000    -2.133000000
O     5.444000000    -2.212000000    -3.024000000
C     4.313000000    -1.522000000    -3.265000000
C     4.400000000    -0.253000000    -3.853000000
H     5.378000000     0.200000000    -3.995000000
C     3.285000000     0.460000000    -4.256000000
O     3.502000000     1.764000000    -4.664000000
C     2.585000000     2.441000000    -5.444000000
C     1.939000000     3.546000000    -4.879000000
H     2.115000000     3.817000000    -3.841000000
C     2.418000000     2.109000000    -6.808000000
H     2.847000000     1.240000000    -7.299000000
C     1.568000000     2.947000000    -7.563000000
H     1.513000000     2.588000000    -8.587000000
C     0.816000000     3.960000000    -6.968000000
H     0.013000000     4.488000000    -7.475000000
C     0.973000000     4.257000000    -5.649000000
O     0.391000000     5.398000000    -5.131000000
C    -0.333000000     5.229000000    -3.948000000
C    -0.054000000     6.051000000    -2.825000000
H     0.481000000     6.982000000    -2.990000000
C    -0.763000000     5.785000000    -1.630000000
O    -0.361000000     6.550000000    -0.556000000
C    -0.996000000     6.736000000     0.642000000
C    -1.878000000     7.802000000     0.814000000
H    -2.021000000     8.474000000    -0.028000000
C    -2.359000000     8.100000000     2.079000000
H    -2.903000000     9.026000000     2.244000000
C    -1.981000000     7.345000000     3.207000000
H    -2.206000000     7.612000000     4.236000000
C    -1.191000000     6.203000000     3.013000000
C    -0.773000000     5.866000000     1.720000000
H    -0.086000000     5.030000000     1.620000000
O     6.653000000     1.645000000    -1.878000000
H     6.032000000     1.365000000    -1.206000000
H     7.479000000     1.761000000    -1.408000000
O     2.805000000     5.423000000    -2.073000000
H     2.431000000     5.730000000    -1.246000000
H     2.519000000     6.069000000    -2.719000000
O     4.588000000     3.251000000     5.724000000
H     4.101000000     2.665000000     6.303000000
H     5.263000000     3.635000000     6.285000000
O    10.401000000     1.481000000     1.279000000
H    10.790000000     0.626000000     1.462000000
H     9.495000000     1.285000000     1.040000000
O     8.320000000     1.406000000    -4.269000000
H     8.574000000     0.538000000    -3.957000000
H     7.678000000     1.712000000    -3.629000000
O     6.324000000     6.800000000     0.941000000
H     5.476000000     7.158000000     1.205000000
H     6.482000000     6.083000000     1.555000000
O     5.424000000     4.190000000    -2.563000000
H     5.424000000     3.277000000    -2.276000000
H     4.548000000     4.509000000    -2.345000000
O     7.872000000    -1.825000000     2.347000000
H     8.261000000    -2.700000000     2.341000000
H     6.928000000    -1.983000000     2.389000000
O     8.566000000    -1.529000000     5.221000000
H     7.865000000    -0.878000000     5.227000000
H     8.748000000    -1.676000000     4.292000000
O     6.519000000     0.264000000     4.570000000
H     5.664000000     0.226000000     4.142000000
H     6.918000000     1.068000000     4.238000000
O     1.029000000     2.970000000     1.292000000
H     1.473000000     2.915000000     2.138000000
H     0.742000000     2.074000000     1.114000000
O     3.100000000     5.091000000     1.388000000
H     2.460000000     4.556000000     0.919000000
H     3.321000000     4.575000000     2.164000000
O     7.104000000     5.401000000     3.011000000
H     7.329000000     5.652000000     3.907000000
H     6.572000000     4.611000000     3.110000000
O     8.353000000    -0.172000000     0.280000000
H     7.495000000    -0.003000000    -0.109000000
H     8.157000000    -0.538000000     1.143000000
O     6.052000000     0.541000000     7.378000000
H     6.928000000     0.878000000     7.566000000
H     6.150000000     0.069000000     6.551000000
O     8.616000000    -1.210000000    -3.311000000
H     7.895000000    -1.206000000    -2.682000000
H     9.387000000    -1.435000000    -2.790000000
O     7.078000000     2.243000000     1.791000000
H     7.121000000     2.838000000     1.042000000
H     6.409000000     1.603000000     1.550000000
O     3.998000000     2.936000000     2.805000000
H     4.101000000     2.877000000     3.755000000
H     4.338000000     2.104000000     2.475000000
O     9.115000000     1.948000000     3.917000000
H     8.767000000     1.834000000     3.033000000
H     8.660000000     2.718000000     4.257000000
