201
-1252.04223
C    -4.544000000    -0.682000000    -1.849000000
H    -3.934000000    -0.013000000    -2.451000000
C    -4.924000000    -0.229000000    -0.541000000
C    -5.765000000    -1.019000000     0.252000000
H    -5.922000000    -0.746000000     1.292000000
C    -4.260000000     1.002000000     0.057000000
O    -4.359000000     2.144000000    -0.819000000
H    -3.187000000     0.801000000     0.193000000
O    -4.787000000     1.426000000     1.325000000
C    -3.817000000     1.700000000     2.245000000
C    -3.378000000     0.698000000     3.081000000
H    -3.915000000    -0.238000000     2.947000000
C    -2.279000000     0.921000000     3.950000000
O    -1.833000000    -0.136000000     4.720000000
C    -1.724000000     2.222000000     3.958000000
C    -0.533000000     2.536000000     4.850000000
H    -0.478000000     3.626000000     4.806000000
C     0.724000000     2.098000000     4.101000000
C     1.425000000     3.065000000     3.413000000
H     1.142000000     4.112000000     3.485000000
H    -0.473000000     2.202000000     5.888000000
C    -2.265000000     3.248000000     3.150000000
H    -1.875000000     4.263000000     3.126000000
C    -3.236000000     2.933000000     2.239000000
C    -3.685000000     4.067000000     1.370000000
H    -3.486000000     5.055000000     1.788000000
H    -4.768000000     4.110000000     1.232000000
C    -2.984000000     3.999000000    -0.031000000
C    -1.749000000     4.611000000    -0.199000000
H    -1.279000000     5.146000000     0.622000000
C    -3.396000000     3.082000000    -1.019000000
C    -2.721000000     2.960000000    -2.183000000
H    -3.043000000     2.157000000    -2.841000000
C    -1.536000000     3.636000000    -2.391000000
O    -0.796000000     3.315000000    -3.560000000
C     0.447000000     2.594000000    -3.310000000
C     0.603000000     1.431000000    -4.243000000
C     1.866000000     0.855000000    -4.430000000
H     2.758000000     1.257000000    -3.956000000
C    -0.490000000     0.888000000    -4.979000000
H    -1.452000000     1.390000000    -5.049000000
O     1.570000000     3.452000000    -3.287000000
H     0.438000000     2.152000000    -2.303000000
C    -1.054000000     4.461000000    -1.380000000
C     0.205000000     5.318000000    -1.561000000
H     0.217000000     6.304000000    -1.091000000
H     0.369000000     5.570000000    -2.611000000
C     1.458000000     4.553000000    -1.122000000
C     1.866000000     4.547000000     0.238000000
H     1.261000000     5.040000000     0.994000000
C     2.074000000     3.716000000    -2.041000000
C     3.169000000     2.954000000    -1.608000000
H     3.689000000     2.287000000    -2.291000000
C     3.600000000     2.976000000    -0.258000000
O     4.485000000     2.051000000     0.192000000
C     3.980000000     0.841000000     0.841000000
C     4.716000000    -0.362000000     0.284000000
C     5.462000000    -0.349000000    -0.933000000
H     5.698000000     0.609000000    -1.390000000
C     4.558000000    -1.640000000     0.875000000
H     4.010000000    -1.660000000     1.813000000
O     4.241000000     0.938000000     2.269000000
H     2.897000000     0.804000000     0.652000000
C     2.962000000     3.782000000     0.638000000
C     3.409000000     3.869000000     2.106000000
H     3.173000000     4.832000000     2.565000000
H     4.494000000     3.747000000     2.119000000
C     2.667000000     2.766000000     2.865000000
C     3.196000000     1.455000000     3.010000000
C     2.473000000     0.497000000     3.729000000
H     2.868000000    -0.509000000     3.844000000
C     1.243000000     0.796000000     4.303000000
O     0.541000000    -0.238000000     4.961000000
C    -0.626000000    -0.718000000     4.253000000
H    -0.454000000    -0.627000000     3.171000000
C    -0.663000000    -2.251000000     4.219000000
C    -1.880000000    -2.904000000     3.840000000
H    -2.758000000    -2.270000000     3.752000000
C     0.538000000    -2.957000000     4.209000000
H     1.502000000    -2.508000000     4.431000000
C     0.531000000    -4.332000000     4.022000000
O     1.661000000    -5.135000000     3.944000000
C    -0.706000000    -4.950000000     3.733000000
H    -0.688000000    -6.025000000     3.577000000
C    -1.847000000    -4.230000000     3.615000000
O    -3.046000000    -4.929000000     3.267000000
C    -4.219000000    -4.296000000     3.173000000
C    -4.704000000    -4.106000000     1.876000000
H    -4.269000000    -4.318000000     0.902000000
C    -4.871000000    -3.775000000     4.353000000
H    -4.516000000    -3.984000000     5.358000000
C    -6.106000000    -3.150000000     4.238000000
H    -6.686000000    -2.842000000     5.104000000
C    -6.612000000    -2.922000000     2.994000000
H    -7.528000000    -2.374000000     2.789000000
C    -5.913000000    -3.360000000     1.848000000
O    -6.619000000    -3.178000000     0.675000000
C    -6.125000000    -2.280000000    -0.216000000
C    -5.687000000    -2.748000000    -1.473000000
H    -5.991000000    -3.723000000    -1.843000000
C    -4.888000000    -1.974000000    -2.284000000
O    -4.523000000    -2.401000000    -3.505000000
C    -4.284000000    -1.516000000    -4.497000000
C    -2.960000000    -1.414000000    -5.002000000
H    -2.122000000    -1.864000000    -4.475000000
C    -5.258000000    -0.755000000    -5.110000000
H    -6.264000000    -0.914000000    -4.729000000
C    -4.990000000     0.083000000    -6.166000000
H    -5.776000000     0.747000000    -6.517000000
C    -3.694000000     0.059000000    -6.725000000
H    -3.453000000     0.686000000    -7.580000000
C    -2.706000000    -0.649000000    -6.118000000
O    -1.405000000    -0.606000000    -6.636000000
C    -0.328000000    -0.187000000    -5.854000000
C     0.937000000    -0.674000000    -6.073000000
H     1.033000000    -1.480000000    -6.796000000
C     2.061000000    -0.218000000    -5.296000000
O     3.206000000    -0.941000000    -5.532000000
C     4.465000000    -0.477000000    -5.213000000
C     5.119000000    -1.121000000    -4.197000000
H     4.699000000    -2.007000000    -3.728000000
C     5.025000000     0.597000000    -5.803000000
H     4.388000000     1.098000000    -6.527000000
C     6.260000000     1.096000000    -5.382000000
H     6.542000000     2.018000000    -5.885000000
C     6.922000000     0.464000000    -4.271000000
H     7.872000000     0.777000000    -3.845000000
C     6.341000000    -0.641000000    -3.746000000
O     6.867000000    -1.290000000    -2.581000000
C     6.139000000    -1.440000000    -1.429000000
C     6.056000000    -2.627000000    -0.806000000
H     6.512000000    -3.493000000    -1.278000000
C     5.259000000    -2.784000000     0.312000000
O     4.994000000    -4.049000000     0.743000000
C     4.687000000    -4.308000000     2.078000000
C     5.614000000    -4.073000000     3.127000000
H     6.553000000    -3.588000000     2.876000000
C     5.155000000    -4.090000000     4.455000000
H     5.908000000    -3.910000000     5.218000000
C     3.808000000    -4.460000000     4.758000000
H     3.575000000    -4.710000000     5.790000000
C     2.950000000    -4.701000000     3.716000000
C     3.323000000    -4.570000000     2.404000000
H     2.575000000    -4.857000000     1.669000000
O     2.827000000    -8.770000000    -3.412000000
H     3.351000000    -8.464000000    -4.152000000
H     2.150000000    -8.102000000    -3.305000000
O     6.049000000    -7.695000000    -0.105000000
H     6.453000000    -7.386000000    -0.916000000
H     5.111000000    -7.558000000    -0.238000000
O     3.287000000    -7.676000000    -0.571000000
H     2.620000000    -6.989000000    -0.595000000
H     3.143000000    -8.179000000    -1.372000000
O    -2.951000000    -9.747000000    -2.379000000
H    -2.798000000    -8.818000000    -2.207000000
H    -2.086000000   -10.150000000    -2.304000000
O    -0.208000000    -8.258000000    -1.064000000
H    -0.608000000    -8.187000000    -0.198000000
H     0.073000000    -7.367000000    -1.272000000
O    -3.041000000    -4.773000000    -4.497000000
H    -3.015000000    -4.610000000    -5.440000000
H    -3.668000000    -4.133000000    -4.161000000
O     3.690000000    -5.077000000    -2.110000000
H     4.262000000    -4.586000000    -1.521000000
H     2.834000000    -5.060000000    -1.681000000
O    -2.127000000   -10.575000000     1.851000000
H    -2.052000000   -11.134000000     1.078000000
H    -1.648000000    -9.779000000     1.618000000
O     1.733000000    -7.932000000     2.428000000
H     2.112000000    -7.604000000     1.612000000
H     2.449000000    -7.882000000     3.061000000
O    -0.737000000    -3.454000000    -2.767000000
H    -1.659000000    -3.212000000    -2.675000000
H    -0.289000000    -2.956000000    -2.084000000
O     1.185000000    -6.513000000    -3.224000000
H     1.115000000    -5.958000000    -2.448000000
H     1.044000000    -5.915000000    -3.959000000
O    -0.400000000   -10.770000000    -2.401000000
H    -0.065000000    -9.945000000    -2.050000000
H     0.088000000   -10.899000000    -3.215000000
O    -5.628000000    -7.517000000     0.785000000
H    -6.037000000    -7.760000000    -0.046000000
H    -4.899000000    -6.949000000     0.535000000
O     3.556000000    -4.940000000    -4.646000000
H     3.511000000    -5.172000000    -3.719000000
H     2.655000000    -4.719000000    -4.882000000
O    -2.672000000    -7.008000000    -3.203000000
H    -2.629000000    -6.133000000    -3.587000000
H    -3.378000000    -7.445000000    -3.679000000
O    -0.873000000    -8.179000000     1.531000000
H     0.014000000    -8.173000000     1.891000000
H    -1.029000000    -7.274000000     1.262000000
O    -3.364000000    -6.414000000    -0.533000000
H    -2.495000000    -6.259000000    -0.164000000
H    -3.232000000    -6.379000000    -1.480000000
O    -2.379000000    -7.932000000     4.633000000
H    -2.123000000    -7.821000000     3.717000000
H    -2.840000000    -7.122000000     4.852000000
O     0.683000000    -4.331000000    -5.052000000
H     0.534000000    -4.253000000    -5.994000000
H     0.101000000    -3.678000000    -4.663000000
