201
-1269.04602
C     1.801000000    -3.704000000     3.430000000
H     2.180000000    -3.929000000     2.436000000
C     0.456000000    -3.541000000     3.573000000
C    -0.020000000    -3.066000000     4.830000000
H    -1.095000000    -3.074000000     4.996000000
C    -0.416000000    -3.615000000     2.357000000
O    -0.087000000    -4.717000000     1.501000000
H    -0.481000000    -2.638000000     1.857000000
O    -1.778000000    -3.812000000     2.796000000
C    -2.728000000    -3.117000000     2.108000000
C    -3.061000000    -1.872000000     2.641000000
H    -2.676000000    -1.590000000     3.618000000
C    -3.982000000    -1.105000000     1.936000000
O    -4.189000000     0.149000000     2.479000000
C    -4.580000000    -1.491000000     0.712000000
C    -5.375000000    -0.611000000    -0.122000000
H    -5.995000000    -1.210000000    -0.792000000
C    -4.636000000     0.399000000    -0.960000000
C    -4.371000000     0.034000000    -2.305000000
H    -4.618000000    -0.985000000    -2.592000000
H    -6.194000000    -0.226000000     0.489000000
C    -4.139000000    -2.744000000     0.196000000
H    -4.504000000    -3.037000000    -0.785000000
C    -3.172000000    -3.517000000     0.851000000
C    -2.730000000    -4.863000000     0.209000000
H    -3.513000000    -5.320000000    -0.399000000
H    -2.512000000    -5.508000000     1.063000000
C    -1.380000000    -4.690000000    -0.555000000
C    -1.421000000    -4.420000000    -1.927000000
H    -2.396000000    -4.285000000    -2.388000000
C    -0.164000000    -4.600000000     0.109000000
C     1.017000000    -4.331000000    -0.575000000
H     1.931000000    -4.250000000     0.008000000
C     1.002000000    -4.011000000    -1.938000000
O     2.197000000    -3.737000000    -2.532000000
C     2.385000000    -2.342000000    -2.893000000
C     3.785000000    -1.832000000    -2.552000000
C     4.181000000    -0.564000000    -3.010000000
H     3.567000000    -0.007000000    -3.713000000
C     4.573000000    -2.428000000    -1.514000000
H     4.332000000    -3.387000000    -1.062000000
O     1.884000000    -1.944000000    -4.223000000
H     1.804000000    -1.724000000    -2.192000000
C    -0.248000000    -4.098000000    -2.627000000
C    -0.347000000    -3.721000000    -4.051000000
H    -1.216000000    -4.241000000    -4.461000000
H     0.434000000    -4.274000000    -4.576000000
C    -0.446000000    -2.220000000    -4.249000000
C    -1.730000000    -1.638000000    -4.327000000
H    -2.622000000    -2.252000000    -4.228000000
C     0.636000000    -1.374000000    -4.265000000
C     0.516000000    -0.004000000    -4.605000000
H     1.367000000     0.661000000    -4.723000000
C    -0.741000000     0.508000000    -4.744000000
O    -0.789000000     1.887000000    -4.892000000
C    -1.092000000     2.610000000    -3.685000000
C    -0.209000000     3.829000000    -3.480000000
C     1.036000000     3.962000000    -4.116000000
H     1.329000000     3.220000000    -4.855000000
C    -0.510000000     4.761000000    -2.491000000
H    -1.486000000     4.821000000    -2.018000000
O    -2.553000000     2.915000000    -3.561000000
H    -1.003000000     1.861000000    -2.883000000
C    -1.936000000    -0.295000000    -4.549000000
C    -3.314000000     0.311000000    -4.517000000
H    -4.092000000    -0.406000000    -4.787000000
H    -3.329000000     1.147000000    -5.220000000
C    -3.673000000     0.863000000    -3.168000000
C    -3.171000000     2.103000000    -2.639000000
C    -3.439000000     2.510000000    -1.329000000
H    -3.178000000     3.511000000    -0.996000000
C    -4.056000000     1.635000000    -0.459000000
O    -4.146000000     1.971000000     0.909000000
C    -3.405000000     1.242000000     1.851000000
H    -2.443000000     0.867000000     1.472000000
C    -2.972000000     2.186000000     2.931000000
C    -2.846000000     1.709000000     4.204000000
H    -3.093000000     0.670000000     4.408000000
C    -2.450000000     3.427000000     2.576000000
H    -2.413000000     3.697000000     1.524000000
C    -1.987000000     4.278000000     3.568000000
O    -1.517000000     5.604000000     3.263000000
C    -1.958000000     3.867000000     4.908000000
H    -1.502000000     4.491000000     5.672000000
C    -2.255000000     2.533000000     5.185000000
O    -1.938000000     2.033000000     6.445000000
C    -1.958000000     0.665000000     6.655000000
C    -0.751000000    -0.024000000     6.792000000
H     0.201000000     0.493000000     6.711000000
C    -3.150000000    -0.010000000     6.889000000
H    -4.110000000     0.492000000     6.800000000
C    -3.124000000    -1.419000000     7.294000000
H    -4.031000000    -2.000000000     7.442000000
C    -1.881000000    -2.052000000     7.447000000
H    -1.898000000    -3.073000000     7.820000000
C    -0.726000000    -1.323000000     7.153000000
O     0.421000000    -2.083000000     7.033000000
C     0.870000000    -2.600000000     5.799000000
C     2.209000000    -2.646000000     5.494000000
H     3.002000000    -2.201000000     6.089000000
C     2.707000000    -3.166000000     4.332000000
O     4.069000000    -3.094000000     4.052000000
C     4.811000000    -3.623000000     2.992000000
C     5.310000000    -2.700000000     2.019000000
H     5.043000000    -1.648000000     2.064000000
C     5.074000000    -4.984000000     2.902000000
H     4.663000000    -5.644000000     3.661000000
C     5.897000000    -5.448000000     1.846000000
H     6.243000000    -6.477000000     1.787000000
C     6.371000000    -4.502000000     0.904000000
H     7.134000000    -4.842000000     0.208000000
C     6.027000000    -3.171000000     0.915000000
O     6.494000000    -2.328000000    -0.037000000
C     5.719000000    -1.797000000    -1.064000000
C     6.069000000    -0.544000000    -1.524000000
H     6.911000000     0.003000000    -1.108000000
C     5.368000000     0.032000000    -2.498000000
O     5.665000000     1.352000000    -2.745000000
C     5.215000000     2.144000000    -3.773000000
C     4.384000000     3.222000000    -3.613000000
H     4.007000000     3.472000000    -2.624000000
C     5.351000000     1.739000000    -5.152000000
H     5.910000000     0.813000000    -5.254000000
C     4.890000000     2.448000000    -6.234000000
H     5.149000000     2.175000000    -7.254000000
C     4.105000000     3.619000000    -5.981000000
H     3.718000000     4.247000000    -6.779000000
C     3.892000000     3.976000000    -4.698000000
O     3.133000000     5.084000000    -4.465000000
C     1.976000000     4.933000000    -3.767000000
C     1.693000000     5.880000000    -2.762000000
H     2.452000000     6.606000000    -2.481000000
C     0.449000000     5.738000000    -2.133000000
O     0.218000000     6.651000000    -1.109000000
C    -0.875000000     6.581000000    -0.219000000
C    -2.085000000     7.193000000    -0.574000000
H    -2.053000000     7.754000000    -1.504000000
C    -3.181000000     7.159000000     0.268000000
H    -4.172000000     7.495000000    -0.025000000
C    -3.012000000     6.690000000     1.581000000
H    -3.867000000     6.670000000     2.252000000
C    -1.706000000     6.229000000     2.017000000
C    -0.678000000     6.163000000     1.097000000
H     0.273000000     5.759000000     1.435000000
O     2.468000000     5.950000000     5.439000000
H     2.154000000     5.092000000     5.153000000
H     2.169000000     6.553000000     4.759000000
O     1.403000000     2.514000000     6.021000000
H     1.741000000     1.643000000     5.814000000
H     1.630000000     3.047000000     5.259000000
O     3.696000000     1.162000000     3.618000000
H     4.182000000     1.219000000     4.441000000
H     3.100000000     1.910000000     3.639000000
O     7.107000000     3.614000000     5.624000000
H     7.583000000     3.687000000     4.796000000
H     6.211000000     3.872000000     5.408000000
O     6.795000000     0.788000000     1.953000000
H     7.110000000     1.631000000     2.279000000
H     6.168000000     1.015000000     1.267000000
O     3.220000000     0.428000000     0.867000000
H     2.400000000     0.909000000     0.757000000
H     3.376000000     0.432000000     1.811000000
O     4.719000000     2.412000000    -0.359000000
H     4.313000000     1.780000000     0.234000000
H     4.941000000     1.902000000    -1.138000000
O     2.017000000     5.326000000     8.363000000
H     2.155000000     5.657000000     7.476000000
H     2.896000000     5.262000000     8.734000000
O     4.267000000     8.485000000    -1.081000000
H     3.569000000     8.985000000    -0.659000000
H     4.048000000     7.570000000    -0.905000000
O     5.780000000     8.027000000     1.909000000
H     4.947000000     7.669000000     1.602000000
H     5.536000000     8.788000000     2.435000000
O     4.273000000     1.204000000     6.197000000
H     3.649000000     1.317000000     6.914000000
H     4.591000000     0.306000000     6.296000000
O     3.904000000     5.063000000    -0.030000000
H     4.112000000     4.130000000    -0.085000000
H     3.457000000     5.160000000     0.811000000
O     6.967000000     3.481000000     1.980000000
H     6.951000000     3.928000000     1.134000000
H     6.221000000     3.844000000     2.457000000
O     1.303000000     8.035000000     3.859000000
H     0.446000000     7.610000000     3.896000000
H     1.216000000     8.799000000     4.429000000
O    -1.714000000     8.465000000     4.397000000
H    -2.163000000     8.801000000     5.172000000
H    -2.053000000     7.576000000     4.290000000
O     2.932000000     7.448000000     1.886000000
H     2.431000000     6.640000000     1.773000000
H     2.502000000     7.896000000     2.615000000
O     7.152000000     4.705000000    -0.495000000
H     7.160000000     5.365000000    -1.188000000
H     6.287000000     4.301000000    -0.559000000
O     1.992000000     9.589000000    -0.151000000
H     1.130000000     9.974000000     0.002000000
H     2.046000000     8.865000000     0.473000000
O     4.944000000     4.807000000     2.959000000
H     5.149000000     5.652000000     3.360000000
H     4.047000000     4.905000000     2.639000000
