201
-1245.15477
C    -5.093000000    -0.096000000    -1.801000000
H    -4.914000000     0.719000000    -2.496000000
C    -4.804000000     0.025000000    -0.453000000
C    -5.105000000    -1.087000000     0.379000000
H    -4.869000000    -0.999000000     1.436000000
C    -4.052000000     1.272000000     0.019000000
O    -4.248000000     2.382000000    -0.739000000
H    -3.044000000     0.839000000    -0.060000000
O    -4.399000000     1.554000000     1.398000000
C    -3.371000000     1.868000000     2.305000000
C    -2.889000000     0.874000000     3.139000000
H    -3.307000000    -0.129000000     3.098000000
C    -1.770000000     1.053000000     3.909000000
O    -1.244000000     0.031000000     4.645000000
C    -1.190000000     2.339000000     3.923000000
C    -0.015000000     2.625000000     4.825000000
H     0.040000000     3.693000000     5.046000000
C     1.280000000     2.221000000     4.224000000
C     1.977000000     3.210000000     3.509000000
H     1.552000000     4.200000000     3.366000000
H    -0.177000000     2.137000000     5.788000000
C    -1.763000000     3.389000000     3.234000000
H    -1.279000000     4.362000000     3.224000000
C    -2.804000000     3.122000000     2.334000000
C    -3.375000000     4.168000000     1.403000000
H    -3.233000000     5.163000000     1.830000000
H    -4.457000000     4.039000000     1.327000000
C    -2.739000000     4.134000000     0.020000000
C    -1.577000000     4.863000000    -0.278000000
H    -1.142000000     5.531000000     0.461000000
C    -3.228000000     3.238000000    -0.902000000
C    -2.702000000     3.106000000    -2.208000000
H    -3.123000000     2.425000000    -2.943000000
C    -1.538000000     3.777000000    -2.416000000
O    -0.833000000     3.441000000    -3.525000000
C     0.231000000     2.452000000    -3.309000000
C     0.158000000     1.226000000    -4.212000000
C     1.360000000     0.571000000    -4.522000000
H     2.320000000     0.786000000    -4.059000000
C    -1.033000000     0.765000000    -4.779000000
H    -1.974000000     1.197000000    -4.447000000
O     1.486000000     3.128000000    -3.324000000
H     0.069000000     2.044000000    -2.300000000
C    -0.947000000     4.693000000    -1.521000000
C     0.417000000     5.322000000    -1.707000000
H     0.504000000     6.201000000    -1.064000000
H     0.608000000     5.597000000    -2.747000000
C     1.498000000     4.358000000    -1.310000000
C     2.068000000     4.520000000    -0.066000000
H     1.714000000     5.319000000     0.580000000
C     2.085000000     3.412000000    -2.169000000
C     3.254000000     2.749000000    -1.801000000
H     3.640000000     1.922000000    -2.391000000
C     3.663000000     2.818000000    -0.501000000
O     4.600000000     1.921000000    -0.097000000
C     4.215000000     0.748000000     0.620000000
C     4.895000000    -0.522000000     0.169000000
C     5.362000000    -0.581000000    -1.104000000
H     5.299000000     0.289000000    -1.753000000
C     4.902000000    -1.648000000     0.967000000
H     4.392000000    -1.659000000     1.928000000
O     4.582000000     0.994000000     2.018000000
H     3.155000000     0.499000000     0.463000000
C     3.082000000     3.740000000     0.387000000
C     3.650000000     3.844000000     1.798000000
H     3.520000000     4.852000000     2.197000000
H     4.732000000     3.735000000     1.696000000
C     3.056000000     2.845000000     2.745000000
C     3.578000000     1.483000000     2.866000000
C     2.933000000     0.572000000     3.672000000
H     3.319000000    -0.442000000     3.738000000
C     1.757000000     0.883000000     4.227000000
O     1.105000000    -0.150000000     4.874000000
C    -0.033000000    -0.640000000     4.173000000
H     0.154000000    -0.314000000     3.139000000
C    -0.180000000    -2.112000000     4.290000000
C    -1.460000000    -2.687000000     4.020000000
H    -2.377000000    -2.105000000     4.070000000
C     0.957000000    -2.930000000     4.514000000
H     1.868000000    -2.421000000     4.817000000
C     0.837000000    -4.269000000     4.256000000
O     1.876000000    -5.121000000     4.419000000
C    -0.388000000    -4.901000000     3.997000000
H    -0.599000000    -5.961000000     3.884000000
C    -1.542000000    -4.111000000     4.014000000
O    -2.695000000    -4.821000000     3.849000000
C    -3.989000000    -4.251000000     3.695000000
C    -4.398000000    -4.129000000     2.391000000
H    -3.708000000    -4.337000000     1.578000000
C    -4.936000000    -3.892000000     4.714000000
H    -4.593000000    -3.946000000     5.744000000
C    -6.188000000    -3.527000000     4.314000000
H    -6.940000000    -3.309000000     5.068000000
C    -6.595000000    -3.312000000     2.973000000
H    -7.591000000    -2.942000000     2.746000000
C    -5.585000000    -3.532000000     2.005000000
O    -5.901000000    -3.371000000     0.662000000
C    -5.721000000    -2.241000000    -0.142000000
C    -6.131000000    -2.254000000    -1.456000000
H    -6.578000000    -3.124000000    -1.930000000
C    -5.726000000    -1.169000000    -2.342000000
O    -5.967000000    -1.275000000    -3.697000000
C    -5.343000000    -0.663000000    -4.715000000
C    -3.991000000    -0.869000000    -4.997000000
H    -3.407000000    -1.606000000    -4.452000000
C    -6.171000000     0.060000000    -5.586000000
H    -7.243000000     0.137000000    -5.420000000
C    -5.615000000     0.613000000    -6.776000000
H    -6.164000000     1.060000000    -7.601000000
C    -4.246000000     0.404000000    -6.935000000
H    -3.812000000     0.897000000    -7.801000000
C    -3.422000000    -0.276000000    -6.109000000
O    -2.153000000    -0.475000000    -6.501000000
C    -0.994000000    -0.172000000    -5.772000000
C     0.171000000    -0.806000000    -6.162000000
H     0.132000000    -1.629000000    -6.872000000
C     1.373000000    -0.481000000    -5.451000000
O     2.413000000    -1.370000000    -5.609000000
C     3.716000000    -1.034000000    -5.321000000
C     4.398000000    -1.671000000    -4.266000000
H     3.926000000    -2.511000000    -3.765000000
C     4.209000000     0.137000000    -5.873000000
H     3.593000000     0.624000000    -6.626000000
C     5.508000000     0.508000000    -5.584000000
H     5.946000000     1.384000000    -6.056000000
C     6.226000000    -0.148000000    -4.556000000
H     7.150000000     0.284000000    -4.180000000
C     5.757000000    -1.335000000    -4.012000000
O     6.359000000    -1.902000000    -2.940000000
C     5.922000000    -1.799000000    -1.638000000
C     5.963000000    -2.921000000    -0.819000000
H     6.547000000    -3.786000000    -1.122000000
C     5.429000000    -2.860000000     0.504000000
O     5.319000000    -4.073000000     1.199000000
C     4.890000000    -4.223000000     2.496000000
C     5.847000000    -4.161000000     3.460000000
H     6.846000000    -3.870000000     3.143000000
C     5.471000000    -4.450000000     4.734000000
H     6.125000000    -4.554000000     5.595000000
C     4.160000000    -4.629000000     5.045000000
H     3.975000000    -5.071000000     6.021000000
C     3.181000000    -4.672000000     4.103000000
C     3.526000000    -4.501000000     2.764000000
H     2.824000000    -4.530000000     1.935000000
O     2.921000000    -8.528000000    -2.937000000
H     3.543000000    -8.330000000    -3.637000000
H     2.118000000    -8.074000000    -3.195000000
O    -2.039000000    -8.079000000     4.888000000
H    -2.219000000    -7.676000000     4.039000000
H    -2.877000000    -8.047000000     5.351000000
O     7.175000000    -6.645000000    -0.715000000
H     6.296000000    -6.335000000    -0.931000000
H     7.256000000    -7.478000000    -1.179000000
O     3.665000000    -7.925000000    -0.294000000
H     3.285000000    -7.054000000    -0.178000000
H     3.586000000    -8.097000000    -1.232000000
O    -1.494000000    -8.971000000    -2.896000000
H    -1.292000000    -9.414000000    -3.720000000
H    -0.966000000    -8.172000000    -2.918000000
O     1.385000000    -8.795000000     0.500000000
H     1.064000000    -7.906000000     0.349000000
H     2.307000000    -8.681000000     0.730000000
O     2.601000000    -5.537000000    -2.714000000
H     3.557000000    -5.559000000    -2.741000000
H     2.387000000    -5.509000000    -1.782000000
O     4.942000000    -9.526000000     1.372000000
H     4.832000000    -8.835000000     0.718000000
H     4.755000000    -9.096000000     2.207000000
O    -3.479000000    -4.696000000    -2.285000000
H    -4.122000000    -4.042000000    -2.013000000
H    -3.485000000    -5.345000000    -1.582000000
O     5.150000000    -6.252000000    -3.000000000
H     5.353000000    -7.022000000    -3.531000000
H     5.920000000    -5.690000000    -3.088000000
O     0.163000000    -6.988000000    -2.597000000
H     0.432000000    -6.722000000    -1.718000000
H     0.241000000    -6.192000000    -3.123000000
O    -0.124000000   -10.421000000    -0.972000000
H     0.487000000    -9.773000000    -0.622000000
H    -0.353000000   -10.091000000    -1.841000000
O     2.684000000    -5.287000000    -5.793000000
H     2.503000000    -5.624000000    -4.916000000
H     1.833000000    -5.294000000    -6.232000000
O     1.736000000    -9.344000000     4.162000000
H     1.777000000    -8.983000000     5.048000000
H     2.166000000    -8.686000000     3.615000000
O    -1.236000000    -8.448000000     1.819000000
H    -0.547000000    -8.887000000     1.320000000
H    -0.942000000    -7.539000000     1.885000000
O    -2.473000000    -6.056000000    -0.118000000
H    -1.524000000    -6.039000000     0.003000000
H    -2.696000000    -6.987000000    -0.135000000
O    -3.871000000    -8.416000000     2.386000000
H    -2.959000000    -8.618000000     2.177000000
H    -4.289000000    -8.288000000     1.535000000
O     3.719000000    -7.669000000     3.351000000
H     4.535000000    -7.221000000     3.571000000
H     3.049000000    -6.987000000     3.404000000
O    -0.445000000    -4.849000000    -4.348000000
H    -0.965000000    -4.348000000    -4.976000000
H    -0.875000000    -4.697000000    -3.506000000
