201
-1249.45840
C     2.649000000    -3.420000000     2.988000000
H     2.706000000    -4.040000000     2.097000000
C     1.380000000    -3.105000000     3.512000000
C     1.310000000    -2.206000000     4.588000000
H     0.343000000    -1.813000000     4.889000000
C     0.149000000    -3.450000000     2.720000000
O     0.315000000    -4.641000000     1.866000000
H     0.074000000    -2.615000000     2.007000000
O    -1.055000000    -3.606000000     3.497000000
C    -2.206000000    -3.086000000     2.996000000
C    -2.482000000    -1.810000000     3.420000000
H    -1.734000000    -1.359000000     4.068000000
C    -3.454000000    -1.003000000     2.848000000
O    -3.472000000     0.263000000     3.304000000
C    -4.258000000    -1.571000000     1.848000000
C    -5.380000000    -0.862000000     1.175000000
H    -6.047000000    -1.562000000     0.667000000
C    -4.840000000     0.122000000     0.114000000
C    -4.825000000    -0.265000000    -1.233000000
H    -5.123000000    -1.281000000    -1.480000000
H    -5.938000000    -0.222000000     1.862000000
C    -3.939000000    -2.870000000     1.369000000
H    -4.544000000    -3.276000000     0.562000000
C    -2.974000000    -3.683000000     1.939000000
C    -2.612000000    -4.937000000     1.178000000
H    -3.513000000    -5.328000000     0.701000000
H    -2.434000000    -5.780000000     1.849000000
C    -1.439000000    -4.696000000     0.157000000
C    -1.786000000    -4.577000000    -1.205000000
H    -2.813000000    -4.743000000    -1.522000000
C    -0.147000000    -4.644000000     0.521000000
C     0.856000000    -4.481000000    -0.428000000
H     1.868000000    -4.275000000    -0.087000000
C     0.487000000    -4.238000000    -1.718000000
O     1.455000000    -3.886000000    -2.568000000
C     1.660000000    -2.530000000    -2.948000000
C     3.084000000    -1.986000000    -3.078000000
C     3.469000000    -1.009000000    -3.952000000
H     2.688000000    -0.668000000    -4.627000000
C     3.972000000    -2.389000000    -2.100000000
H     3.596000000    -3.075000000    -1.345000000
O     1.028000000    -2.359000000    -4.236000000
H     1.194000000    -1.836000000    -2.233000000
C    -0.808000000    -4.326000000    -2.145000000
C    -1.195000000    -4.022000000    -3.578000000
H    -2.088000000    -4.571000000    -3.882000000
H    -0.423000000    -4.412000000    -4.245000000
C    -1.337000000    -2.520000000    -3.777000000
C    -2.616000000    -1.909000000    -3.807000000
H    -3.482000000    -2.541000000    -3.626000000
C    -0.200000000    -1.758000000    -4.188000000
C    -0.342000000    -0.406000000    -4.242000000
H     0.539000000     0.196000000    -4.448000000
C    -1.620000000     0.175000000    -4.160000000
O    -1.756000000     1.532000000    -4.278000000
C    -1.841000000     2.318000000    -3.079000000
C    -0.772000000     3.453000000    -3.027000000
C     0.411000000     3.475000000    -3.811000000
H     0.631000000     2.620000000    -4.444000000
C    -0.997000000     4.524000000    -2.238000000
H    -1.796000000     4.581000000    -1.502000000
O    -3.188000000     2.742000000    -2.789000000
H    -1.515000000     1.705000000    -2.226000000
C    -2.787000000    -0.529000000    -3.875000000
C    -4.214000000     0.108000000    -3.706000000
H    -5.042000000    -0.569000000    -3.928000000
H    -4.217000000     0.909000000    -4.448000000
C    -4.377000000     0.619000000    -2.253000000
C    -3.930000000     1.914000000    -1.911000000
C    -3.940000000     2.294000000    -0.601000000
H    -3.662000000     3.322000000    -0.384000000
C    -4.388000000     1.420000000     0.384000000
O    -4.248000000     1.892000000     1.650000000
C    -3.154000000     1.409000000     2.440000000
H    -2.353000000     1.068000000     1.767000000
C    -2.490000000     2.477000000     3.297000000
C    -1.782000000     2.195000000     4.475000000
H    -1.827000000     1.204000000     4.920000000
C    -2.363000000     3.737000000     2.728000000
H    -2.878000000     3.977000000     1.801000000
C    -1.726000000     4.730000000     3.470000000
O    -1.543000000     5.945000000     2.982000000
C    -1.010000000     4.408000000     4.564000000
H    -0.424000000     5.179000000     5.057000000
C    -0.995000000     3.163000000     5.112000000
O    -0.336000000     2.941000000     6.272000000
C    -0.096000000     1.643000000     6.702000000
C     1.018000000     0.915000000     6.212000000
H     1.746000000     1.426000000     5.588000000
C    -0.938000000     1.026000000     7.616000000
H    -1.819000000     1.509000000     8.032000000
C    -0.608000000    -0.234000000     8.139000000
H    -1.346000000    -0.716000000     8.775000000
C     0.477000000    -0.873000000     7.651000000
H     0.616000000    -1.889000000     8.011000000
C     1.355000000    -0.297000000     6.760000000
O     2.490000000    -0.947000000     6.312000000
C     2.487000000    -1.726000000     5.162000000
C     3.748000000    -2.159000000     4.745000000
H     4.693000000    -1.943000000     5.238000000
C     3.806000000    -2.906000000     3.553000000
O     5.086000000    -3.308000000     3.173000000
C     5.408000000    -3.834000000     1.944000000
C     5.503000000    -2.967000000     0.853000000
H     5.253000000    -1.917000000     0.987000000
C     5.748000000    -5.140000000     1.796000000
H     5.682000000    -5.808000000     2.651000000
C     6.204000000    -5.664000000     0.555000000
H     6.364000000    -6.737000000     0.497000000
C     6.356000000    -4.793000000    -0.516000000
H     6.734000000    -5.146000000    -1.472000000
C     6.057000000    -3.420000000    -0.362000000
O     6.304000000    -2.489000000    -1.381000000
C     5.311000000    -1.981000000    -2.169000000
C     5.694000000    -0.946000000    -3.018000000
H     6.731000000    -0.620000000    -3.055000000
C     4.764000000    -0.444000000    -3.878000000
O     5.137000000     0.578000000    -4.712000000
C     4.254000000     1.419000000    -5.246000000
C     3.919000000     2.568000000    -4.515000000
H     4.231000000     2.653000000    -3.478000000
C     4.036000000     1.402000000    -6.655000000
H     4.486000000     0.581000000    -7.209000000
C     3.100000000     2.331000000    -7.248000000
H     2.868000000     2.281000000    -8.309000000
C     2.560000000     3.340000000    -6.472000000
H     1.730000000     3.920000000    -6.867000000
C     2.958000000     3.469000000    -5.122000000
O     2.486000000     4.554000000    -4.390000000
C     1.263000000     4.524000000    -3.812000000
C     0.908000000     5.682000000    -3.079000000
H     1.534000000     6.571000000    -3.050000000
C    -0.159000000     5.641000000    -2.278000000
O    -0.431000000     6.747000000    -1.523000000
C    -1.292000000     6.779000000    -0.474000000
C    -2.582000000     7.075000000    -0.787000000
H    -2.766000000     7.183000000    -1.853000000
C    -3.561000000     7.145000000     0.196000000
H    -4.537000000     7.564000000    -0.039000000
C    -3.248000000     6.865000000     1.548000000
H    -3.969000000     6.977000000     2.353000000
C    -1.966000000     6.347000000     1.778000000
C    -0.969000000     6.316000000     0.834000000
H     0.043000000     5.961000000     1.012000000
O     2.859000000     9.128000000    -0.193000000
H     2.887000000     9.888000000     0.389000000
H     2.818000000     8.376000000     0.398000000
O     7.478000000     3.786000000     4.632000000
H     6.903000000     4.397000000     4.171000000
H     6.881000000     3.179000000     5.068000000
O     2.011000000     5.555000000     3.969000000
H     2.483000000     6.227000000     3.477000000
H     2.264000000     4.731000000     3.554000000
O     1.708000000     5.817000000     6.499000000
H     2.083000000     4.979000000     6.772000000
H     1.782000000     5.813000000     5.545000000
O     7.733000000     7.848000000     0.406000000
H     8.512000000     7.395000000     0.082000000
H     7.033000000     7.199000000     0.338000000
O     6.798000000     5.284000000     0.459000000
H     6.258000000     5.030000000    -0.289000000
H     6.169000000     5.521000000     1.139000000
O     4.034000000     2.388000000     4.833000000
H     3.432000000     2.591000000     4.117000000
H     4.401000000     1.535000000     4.604000000
O     7.435000000     0.627000000     2.933000000
H     7.038000000     1.476000000     2.738000000
H     7.780000000     0.325000000     2.093000000
O     4.773000000     4.518000000    -1.440000000
H     5.060000000     3.830000000    -2.041000000
H     4.331000000     4.049000000    -0.733000000
O     2.989000000     6.715000000     1.302000000
H     3.083000000     5.762000000     1.308000000
H     3.755000000     7.034000000     1.778000000
O     8.654000000     3.959000000    -1.351000000
H     9.463000000     4.373000000    -1.652000000
H     8.246000000     4.614000000    -0.784000000
O     4.423000000     0.341000000     2.651000000
H     5.254000000     0.711000000     2.354000000
H     3.759000000     0.797000000     2.133000000
O     3.084000000     3.433000000     7.178000000
H     3.879000000     3.663000000     7.659000000
H     3.390000000     3.221000000     6.296000000
O     6.036000000     2.664000000     1.971000000
H     6.060000000     3.191000000     1.172000000
H     5.935000000     3.303000000     2.676000000
O     6.208000000     2.455000000    -2.285000000
H     6.394000000     1.529000000    -2.439000000
H     7.056000000     2.835000000    -2.056000000
O     5.987000000     6.446000000    -3.422000000
H     6.907000000     6.439000000    -3.158000000
H     5.570000000     5.799000000    -2.854000000
O     5.343000000     4.945000000     3.091000000
H     5.158000000     5.874000000     3.223000000
H     4.496000000     4.562000000     2.860000000
O     6.676000000    -0.194000000     5.288000000
H     6.771000000    -1.113000000     5.034000000
H     6.779000000     0.291000000     4.469000000
O     4.743000000     7.512000000     3.412000000
H     4.229000000     8.319000000     3.435000000
H     5.625000000     7.783000000     3.667000000
