201
-1219.66095
C    -5.661000000     0.878000000    -1.264000000
H    -5.247000000     1.727000000    -1.802000000
C    -5.202000000     0.798000000     0.057000000
C    -5.455000000    -0.403000000     0.795000000
H    -5.108000000    -0.413000000     1.825000000
C    -4.210000000     1.824000000     0.661000000
O    -4.233000000     3.034000000    -0.051000000
H    -3.235000000     1.350000000     0.473000000
O    -4.445000000     2.076000000     2.022000000
C    -3.268000000     2.285000000     2.796000000
C    -2.820000000     1.200000000     3.552000000
H    -3.310000000     0.231000000     3.604000000
C    -1.536000000     1.281000000     4.202000000
O    -1.028000000     0.091000000     4.749000000
C    -0.755000000     2.453000000     4.135000000
C     0.610000000     2.531000000     4.742000000
H     0.818000000     3.580000000     4.962000000
C     1.666000000     2.011000000     3.826000000
C     2.373000000     2.833000000     3.034000000
H     2.078000000     3.876000000     2.958000000
H     0.705000000     1.995000000     5.689000000
C    -1.177000000     3.523000000     3.330000000
H    -0.500000000     4.345000000     3.109000000
C    -2.458000000     3.388000000     2.702000000
C    -2.723000000     4.606000000     1.847000000
H    -2.220000000     5.491000000     2.243000000
H    -3.753000000     4.960000000     1.922000000
C    -2.306000000     4.345000000     0.448000000
C    -1.121000000     4.884000000    -0.039000000
H    -0.571000000     5.521000000     0.649000000
C    -2.986000000     3.473000000    -0.409000000
C    -2.528000000     3.259000000    -1.683000000
H    -3.211000000     2.720000000    -2.335000000
C    -1.316000000     3.687000000    -2.146000000
O    -0.857000000     3.284000000    -3.385000000
C     0.119000000     2.260000000    -3.317000000
C    -0.118000000     1.128000000    -4.270000000
C     0.890000000     0.210000000    -4.446000000
H     1.830000000     0.361000000    -3.922000000
C    -1.393000000     0.784000000    -4.754000000
H    -2.189000000     1.435000000    -4.403000000
O     1.447000000     2.857000000    -3.407000000
H     0.060000000     1.835000000    -2.305000000
C    -0.609000000     4.538000000    -1.327000000
C     0.750000000     5.082000000    -1.707000000
H     1.003000000     6.068000000    -1.313000000
H     0.806000000     5.347000000    -2.765000000
C     1.797000000     4.093000000    -1.394000000
C     2.484000000     4.111000000    -0.164000000
H     2.174000000     4.775000000     0.639000000
C     2.235000000     3.102000000    -2.309000000
C     3.290000000     2.301000000    -2.078000000
H     3.432000000     1.560000000    -2.860000000
C     4.014000000     2.400000000    -0.890000000
O     4.888000000     1.407000000    -0.652000000
C     4.538000000     0.294000000     0.176000000
C     5.183000000    -1.098000000    -0.256000000
C     5.503000000    -1.292000000    -1.593000000
H     5.261000000    -0.525000000    -2.325000000
C     5.372000000    -2.124000000     0.724000000
H     5.108000000    -1.959000000     1.765000000
O     4.848000000     0.588000000     1.570000000
H     3.440000000     0.246000000     0.216000000
C     3.622000000     3.277000000     0.107000000
C     4.261000000     3.346000000     1.460000000
H     4.169000000     4.306000000     1.973000000
H     5.324000000     3.113000000     1.369000000
C     3.545000000     2.417000000     2.415000000
C     3.890000000     1.054000000     2.459000000
C     3.224000000     0.279000000     3.309000000
H     3.513000000    -0.765000000     3.398000000
C     2.025000000     0.643000000     3.898000000
O     1.268000000    -0.289000000     4.493000000
C    -0.010000000    -0.610000000     3.984000000
H    -0.021000000    -0.258000000     2.942000000
C    -0.189000000    -2.141000000     3.844000000
C    -1.456000000    -2.625000000     3.760000000
H    -2.335000000    -2.019000000     3.965000000
C     0.943000000    -2.961000000     3.647000000
H     1.954000000    -2.583000000     3.774000000
C     0.757000000    -4.280000000     3.303000000
O     1.832000000    -5.162000000     3.168000000
C    -0.531000000    -4.803000000     3.326000000
H    -0.661000000    -5.870000000     3.168000000
C    -1.610000000    -3.986000000     3.488000000
O    -2.857000000    -4.649000000     3.568000000
C    -4.037000000    -4.001000000     3.440000000
C    -4.522000000    -3.781000000     2.172000000
H    -3.935000000    -4.150000000     1.335000000
C    -4.794000000    -3.652000000     4.544000000
H    -4.501000000    -3.969000000     5.542000000
C    -5.997000000    -2.986000000     4.446000000
H    -6.558000000    -2.808000000     5.360000000
C    -6.399000000    -2.653000000     3.149000000
H    -7.338000000    -2.158000000     2.917000000
C    -5.675000000    -3.041000000     2.031000000
O    -6.240000000    -2.719000000     0.852000000
C    -6.168000000    -1.461000000     0.236000000
C    -6.667000000    -1.312000000    -1.106000000
H    -7.251000000    -2.167000000    -1.436000000
C    -6.369000000    -0.184000000    -1.886000000
O    -6.902000000     0.109000000    -3.168000000
C    -6.102000000     0.469000000    -4.244000000
C    -5.048000000    -0.447000000    -4.564000000
H    -4.792000000    -1.294000000    -3.933000000
C    -6.373000000     1.590000000    -5.058000000
H    -7.245000000     2.222000000    -4.913000000
C    -5.365000000     1.962000000    -5.994000000
H    -5.342000000     2.877000000    -6.580000000
C    -4.361000000     1.062000000    -6.296000000
H    -3.621000000     1.270000000    -7.065000000
C    -4.184000000    -0.120000000    -5.590000000
O    -3.014000000    -0.771000000    -5.783000000
C    -1.701000000    -0.395000000    -5.378000000
C    -0.648000000    -1.330000000    -5.466000000
H    -0.835000000    -2.297000000    -5.925000000
C     0.676000000    -1.002000000    -5.110000000
O     1.693000000    -1.977000000    -5.064000000
C     2.995000000    -1.645000000    -5.111000000
C     3.852000000    -2.447000000    -4.383000000
H     3.513000000    -3.301000000    -3.802000000
C     3.555000000    -0.611000000    -5.898000000
H     2.940000000    -0.141000000    -6.661000000
C     4.946000000    -0.291000000    -5.770000000
H     5.378000000     0.577000000    -6.262000000
C     5.747000000    -1.104000000    -5.011000000
H     6.813000000    -0.904000000    -4.937000000
C     5.173000000    -2.145000000    -4.271000000
O     6.022000000    -2.859000000    -3.435000000
C     5.900000000    -2.576000000    -2.023000000
C     6.139000000    -3.596000000    -1.098000000
H     6.450000000    -4.589000000    -1.413000000
C     5.988000000    -3.360000000     0.252000000
O     6.159000000    -4.361000000     1.156000000
C     5.402000000    -4.460000000     2.328000000
C     5.843000000    -4.223000000     3.625000000
H     6.885000000    -3.945000000     3.757000000
C     5.034000000    -4.341000000     4.759000000
H     5.426000000    -4.347000000     5.773000000
C     3.710000000    -4.745000000     4.510000000
H     2.997000000    -4.778000000     5.330000000
C     3.171000000    -4.846000000     3.266000000
C     4.030000000    -4.756000000     2.116000000
H     3.734000000    -5.013000000     1.102000000
O     0.305000000    -8.296000000    -4.687000000
H    -0.158000000    -7.772000000    -4.034000000
H     0.900000000    -8.844000000    -4.176000000
O     1.706000000    -8.162000000     4.674000000
H     2.394000000    -8.163000000     4.008000000
H     0.904000000    -8.357000000     4.189000000
O     3.757000000    -7.394000000    -0.295000000
H     3.366000000    -6.632000000    -0.724000000
H     4.238000000    -7.840000000    -0.992000000
O     1.054000000    -8.601000000    -0.040000000
H     0.960000000    -8.652000000     0.912000000
H     1.399000000    -7.723000000    -0.200000000
O     3.322000000    -7.886000000    -5.477000000
H     3.499000000    -7.184000000    -4.851000000
H     2.956000000    -8.594000000    -4.947000000
O     2.146000000   -10.944000000    -0.838000000
H     2.985000000   -11.031000000    -0.386000000
H     1.790000000   -10.113000000    -0.523000000
O     3.302000000    -6.148000000    -3.317000000
H     4.214000000    -5.873000000    -3.220000000
H     2.867000000    -5.815000000    -2.533000000
O     3.987000000    -8.166000000     2.257000000
H     3.921000000    -7.677000000     1.437000000
H     4.751000000    -7.793000000     2.697000000
O    -4.246000000    -4.485000000    -1.606000000
H    -3.552000000    -3.826000000    -1.637000000
H    -3.795000000    -5.315000000    -1.764000000
O    -1.104000000    -6.541000000    -2.512000000
H    -0.683000000    -6.198000000    -1.724000000
H    -1.240000000    -5.772000000    -3.065000000
O    -3.688000000    -7.045000000    -2.943000000
H    -2.745000000    -6.899000000    -2.875000000
H    -3.837000000    -7.216000000    -3.873000000
O     1.380000000    -5.378000000    -5.334000000
H     2.070000000    -5.207000000    -4.694000000
H     0.567000000    -5.312000000    -4.833000000
O    -1.141000000    -4.542000000    -4.683000000
H    -0.744000000    -4.427000000    -5.547000000
H    -2.081000000    -4.443000000    -4.836000000
O    -1.627000000    -7.134000000     0.946000000
H    -1.064000000    -6.510000000     0.488000000
H    -1.776000000    -7.835000000     0.311000000
O    -1.202000000    -8.384000000     3.312000000
H    -0.863000000    -9.270000000     3.186000000
H    -1.261000000    -8.023000000     2.427000000
O    -4.107000000    -6.972000000     2.161000000
H    -3.694000000    -6.324000000     2.732000000
H    -3.525000000    -7.030000000     1.404000000
O     2.249000000    -9.687000000    -3.296000000
H     2.800000000   -10.433000000    -3.532000000
H     2.269000000    -9.669000000    -2.339000000
O    -1.550000000    -9.369000000    -0.527000000
H    -1.627000000   -10.186000000    -1.021000000
H    -0.624000000    -9.136000000    -0.593000000
O    -2.263000000    -2.454000000    -2.134000000
H    -1.910000000    -2.486000000    -3.024000000
H    -1.492000000    -2.353000000    -1.575000000
