201
-1239.93243
C    -5.614000000     0.921000000    -1.292000000
H    -5.297000000     1.713000000    -1.966000000
C    -5.089000000     0.738000000    -0.009000000
C    -5.515000000    -0.332000000     0.767000000
H    -4.960000000    -0.404000000     1.699000000
C    -4.016000000     1.763000000     0.511000000
O    -4.109000000     3.010000000    -0.303000000
H    -3.006000000     1.384000000     0.296000000
O    -4.156000000     1.981000000     1.975000000
C    -3.055000000     2.247000000     2.699000000
C    -2.654000000     1.214000000     3.501000000
H    -3.296000000     0.339000000     3.578000000
C    -1.472000000     1.267000000     4.197000000
O    -1.113000000     0.219000000     4.927000000
C    -0.700000000     2.456000000     4.078000000
C     0.614000000     2.587000000     4.832000000
H     0.807000000     3.585000000     5.233000000
C     1.822000000     2.024000000     4.102000000
C     2.575000000     2.851000000     3.312000000
H     2.291000000     3.886000000     3.140000000
H     0.490000000     2.004000000     5.747000000
C    -1.162000000     3.566000000     3.352000000
H    -0.541000000     4.457000000     3.311000000
C    -2.393000000     3.527000000     2.670000000
C    -2.745000000     4.597000000     1.616000000
H    -2.362000000     5.552000000     1.983000000
H    -3.808000000     4.846000000     1.645000000
C    -2.194000000     4.240000000     0.204000000
C    -1.017000000     4.901000000    -0.200000000
H    -0.492000000     5.488000000     0.549000000
C    -2.945000000     3.558000000    -0.659000000
C    -2.507000000     3.357000000    -1.971000000
H    -3.036000000     2.768000000    -2.716000000
C    -1.227000000     3.775000000    -2.234000000
O    -0.694000000     3.307000000    -3.440000000
C     0.348000000     2.283000000    -3.305000000
C     0.059000000     1.150000000    -4.276000000
C     1.091000000     0.277000000    -4.691000000
H     2.115000000     0.485000000    -4.392000000
C    -1.277000000     0.740000000    -4.531000000
H    -2.071000000     1.382000000    -4.158000000
O     1.653000000     2.843000000    -3.431000000
H     0.298000000     1.944000000    -2.260000000
C    -0.468000000     4.553000000    -1.364000000
C     0.912000000     5.102000000    -1.718000000
H     1.195000000     6.070000000    -1.298000000
H     1.010000000     5.326000000    -2.782000000
C     2.010000000     4.041000000    -1.499000000
C     2.650000000     4.196000000    -0.274000000
H     2.417000000     5.061000000     0.341000000
C     2.381000000     2.997000000    -2.380000000
C     3.289000000     2.122000000    -2.051000000
H     3.443000000     1.320000000    -2.768000000
C     3.967000000     2.247000000    -0.837000000
O     4.761000000     1.169000000    -0.471000000
C     4.272000000     0.079000000     0.276000000
C     4.949000000    -1.261000000    -0.186000000
C     5.321000000    -1.477000000    -1.523000000
H     5.232000000    -0.599000000    -2.158000000
C     4.989000000    -2.388000000     0.662000000
H     4.474000000    -2.417000000     1.619000000
O     4.705000000     0.387000000     1.625000000
H     3.179000000     0.015000000     0.167000000
C     3.570000000     3.261000000     0.097000000
C     4.249000000     3.244000000     1.540000000
H     4.174000000     4.232000000     2.000000000
H     5.321000000     3.044000000     1.482000000
C     3.588000000     2.348000000     2.555000000
C     3.833000000     0.995000000     2.524000000
C     3.093000000     0.125000000     3.389000000
H     3.332000000    -0.935000000     3.417000000
C     2.052000000     0.642000000     4.139000000
O     1.227000000    -0.267000000     4.830000000
C    -0.080000000    -0.537000000     4.266000000
H     0.057000000    -0.323000000     3.196000000
C    -0.314000000    -2.076000000     4.250000000
C    -1.618000000    -2.612000000     3.980000000
H    -2.478000000    -1.952000000     3.905000000
C     0.787000000    -2.912000000     4.208000000
H     1.811000000    -2.548000000     4.174000000
C     0.661000000    -4.271000000     3.896000000
O     1.719000000    -5.089000000     3.608000000
C    -0.598000000    -4.798000000     3.533000000
H    -0.734000000    -5.845000000     3.272000000
C    -1.700000000    -3.992000000     3.640000000
O    -2.873000000    -4.551000000     3.221000000
C    -4.067000000    -3.868000000     3.228000000
C    -4.732000000    -3.577000000     2.037000000
H    -4.316000000    -3.688000000     1.039000000
C    -4.618000000    -3.503000000     4.470000000
H    -4.132000000    -3.588000000     5.439000000
C    -5.883000000    -2.957000000     4.488000000
H    -6.349000000    -2.704000000     5.438000000
C    -6.542000000    -2.617000000     3.264000000
H    -7.550000000    -2.209000000     3.260000000
C    -5.949000000    -2.906000000     2.061000000
O    -6.582000000    -2.582000000     0.923000000
C    -6.324000000    -1.355000000     0.263000000
C    -6.801000000    -1.221000000    -1.022000000
H    -7.428000000    -1.981000000    -1.481000000
C    -6.452000000    -0.086000000    -1.805000000
O    -6.939000000     0.078000000    -3.121000000
C    -6.022000000     0.484000000    -4.092000000
C    -4.918000000    -0.398000000    -4.296000000
H    -4.723000000    -1.315000000    -3.746000000
C    -6.340000000     1.462000000    -5.035000000
H    -7.233000000     2.081000000    -5.006000000
C    -5.507000000     1.646000000    -6.164000000
H    -5.814000000     2.355000000    -6.928000000
C    -4.351000000     0.894000000    -6.309000000
H    -3.719000000     0.952000000    -7.191000000
C    -4.054000000    -0.094000000    -5.319000000
O    -2.926000000    -0.894000000    -5.530000000
C    -1.585000000    -0.375000000    -5.320000000
C    -0.521000000    -1.215000000    -5.683000000
H    -0.777000000    -2.048000000    -6.333000000
C     0.809000000    -0.920000000    -5.338000000
O     1.774000000    -1.938000000    -5.616000000
C     3.152000000    -1.669000000    -5.460000000
C     3.857000000    -2.392000000    -4.473000000
H     3.427000000    -3.117000000    -3.786000000
C     3.857000000    -0.626000000    -6.161000000
H     3.276000000     0.039000000    -6.795000000
C     5.159000000    -0.342000000    -5.954000000
H     5.651000000     0.525000000    -6.389000000
C     5.846000000    -1.160000000    -5.072000000
H     6.925000000    -1.033000000    -5.060000000
C     5.200000000    -2.236000000    -4.366000000
O     5.977000000    -2.860000000    -3.386000000
C     5.706000000    -2.705000000    -2.023000000
C     5.888000000    -3.739000000    -1.138000000
H     6.381000000    -4.636000000    -1.503000000
C     5.586000000    -3.595000000     0.209000000
O     5.817000000    -4.662000000     1.045000000
C     5.199000000    -4.653000000     2.289000000
C     5.789000000    -4.090000000     3.440000000
H     6.801000000    -3.717000000     3.308000000
C     5.100000000    -4.025000000     4.652000000
H     5.451000000    -3.691000000     5.625000000
C     3.768000000    -4.312000000     4.731000000
H     3.241000000    -4.314000000     5.682000000
C     3.064000000    -4.743000000     3.564000000
C     3.799000000    -5.018000000     2.350000000
H     3.293000000    -5.316000000     1.435000000
O    -0.699000000    -7.153000000    -4.781000000
H    -1.534000000    -7.401000000    -4.383000000
H    -0.078000000    -7.150000000    -4.054000000
O     1.107000000    -9.988000000     1.679000000
H     0.633000000    -9.200000000     1.415000000
H     1.688000000    -9.695000000     2.380000000
O     4.131000000    -6.633000000    -0.707000000
H     3.506000000    -5.919000000    -0.830000000
H     4.503000000    -6.778000000    -1.578000000
O     1.355000000    -7.294000000    -2.899000000
H     2.024000000    -7.814000000    -2.454000000
H     1.155000000    -6.586000000    -2.287000000
O     3.434000000    -6.848000000    -5.750000000
H     3.399000000    -6.462000000    -4.874000000
H     3.299000000    -7.784000000    -5.604000000
O     1.070000000    -8.047000000     4.788000000
H     1.545000000    -7.378000000     4.295000000
H     1.738000000    -8.692000000     5.020000000
O     3.189000000   -10.200000000    -1.236000000
H     3.362000000    -9.814000000    -0.377000000
H     3.957000000    -9.972000000    -1.760000000
O     4.049000000    -5.863000000    -3.344000000
H     4.835000000    -5.323000000    -3.257000000
H     3.381000000    -5.395000000    -2.843000000
O     3.996000000    -8.964000000     1.052000000
H     4.032000000    -8.303000000     0.360000000
H     4.699000000    -8.721000000     1.653000000
O    -4.639000000    -4.076000000    -1.735000000
H    -3.730000000    -3.776000000    -1.745000000
H    -4.580000000    -5.022000000    -1.868000000
O     4.771000000    -8.800000000    -2.890000000
H     5.639000000    -8.617000000    -3.248000000
H     4.185000000    -8.218000000    -3.374000000
O    -1.927000000    -5.686000000    -2.003000000
H    -1.044000000    -5.937000000    -1.733000000
H    -1.815000000    -4.833000000    -2.423000000
O    -3.124000000    -7.555000000    -3.497000000
H    -3.421000000    -8.279000000    -2.946000000
H    -2.881000000    -6.867000000    -2.877000000
O     0.893000000    -5.618000000    -6.527000000
H     1.774000000    -5.907000000    -6.290000000
H     0.313000000    -6.131000000    -5.965000000
O    -0.397000000    -4.343000000    -4.097000000
H     0.262000000    -4.065000000    -4.733000000
H    -1.090000000    -4.738000000    -4.626000000
O     0.143000000    -7.627000000     0.492000000
H     0.485000000    -6.790000000     0.179000000
H     0.370000000    -8.252000000    -0.197000000
O    -2.652000000    -6.560000000     0.536000000
H    -1.863000000    -7.005000000     0.846000000
H    -2.386000000    -6.145000000    -0.285000000
O     0.463000000   -10.406000000    -1.496000000
H     1.411000000   -10.349000000    -1.377000000
H     0.340000000   -10.396000000    -2.445000000
O    -2.074000000    -2.716000000    -2.266000000
H    -1.729000000    -2.570000000    -3.147000000
H    -1.373000000    -2.423000000    -1.683000000
