201
-1246.36707
C     0.801000000    -2.146000000     4.461000000
H     1.229000000    -3.004000000     3.950000000
C    -0.518000000    -1.674000000     4.204000000
C    -0.984000000    -0.542000000     4.925000000
H    -1.935000000    -0.124000000     4.606000000
C    -1.286000000    -2.365000000     3.040000000
O    -0.872000000    -3.696000000     2.891000000
H    -1.149000000    -1.831000000     2.088000000
O    -2.721000000    -2.366000000     3.368000000
C    -3.494000000    -2.070000000     2.293000000
C    -3.868000000    -0.752000000     2.257000000
H    -3.691000000     0.006000000     3.016000000
C    -4.562000000    -0.364000000     1.127000000
O    -4.816000000     0.925000000     0.993000000
C    -4.795000000    -1.209000000     0.050000000
C    -5.485000000    -0.763000000    -1.301000000
H    -5.718000000    -1.677000000    -1.851000000
C    -4.440000000    -0.053000000    -2.184000000
C    -3.832000000    -0.816000000    -3.204000000
H    -4.231000000    -1.813000000    -3.373000000
H    -6.319000000    -0.058000000    -1.261000000
C    -4.465000000    -2.536000000     0.149000000
H    -4.634000000    -3.103000000    -0.763000000
C    -3.731000000    -2.987000000     1.246000000
C    -3.222000000    -4.393000000     1.276000000
H    -3.819000000    -5.142000000     0.752000000
H    -3.252000000    -4.777000000     2.298000000
C    -1.751000000    -4.474000000     0.788000000
C    -1.480000000    -4.716000000    -0.568000000
H    -2.323000000    -4.927000000    -1.222000000
C    -0.695000000    -4.137000000     1.625000000
C     0.597000000    -4.265000000     1.154000000
H     1.422000000    -3.987000000     1.806000000
C     0.879000000    -4.499000000    -0.198000000
O     2.150000000    -4.320000000    -0.606000000
C     2.600000000    -3.101000000    -1.231000000
C     3.990000000    -2.888000000    -0.786000000
C     4.731000000    -1.935000000    -1.532000000
H     4.313000000    -1.519000000    -2.445000000
C     4.514000000    -3.292000000     0.385000000
H     3.940000000    -4.050000000     0.912000000
O     2.513000000    -3.258000000    -2.694000000
H     1.980000000    -2.233000000    -0.960000000
C    -0.158000000    -4.694000000    -1.104000000
C     0.140000000    -4.954000000    -2.657000000
H    -0.629000000    -5.661000000    -2.978000000
H     1.143000000    -5.379000000    -2.733000000
C     0.228000000    -3.633000000    -3.415000000
C    -0.969000000    -3.089000000    -3.937000000
H    -1.840000000    -3.739000000    -3.924000000
C     1.360000000    -2.827000000    -3.290000000
C     1.460000000    -1.649000000    -4.001000000
H     2.377000000    -1.070000000    -3.935000000
C     0.306000000    -1.079000000    -4.527000000
O     0.345000000     0.167000000    -5.060000000
C    -0.082000000     1.167000000    -4.116000000
C     1.008000000     2.207000000    -3.791000000
C     2.358000000     2.094000000    -4.173000000
H     2.500000000     1.198000000    -4.773000000
C     0.566000000     3.364000000    -3.116000000
H    -0.453000000     3.501000000    -2.763000000
O    -1.333000000     1.668000000    -4.469000000
H    -0.328000000     0.717000000    -3.143000000
C    -0.953000000    -1.812000000    -4.430000000
C    -2.205000000    -1.156000000    -5.067000000
H    -2.861000000    -1.979000000    -5.359000000
H    -1.987000000    -0.604000000    -5.983000000
C    -2.854000000    -0.264000000    -4.046000000
C    -2.457000000     1.141000000    -3.848000000
C    -3.071000000     1.865000000    -2.828000000
H    -2.681000000     2.873000000    -2.714000000
C    -4.119000000     1.338000000    -2.065000000
O    -4.484000000     2.065000000    -0.896000000
C    -3.866000000     1.805000000     0.385000000
H    -2.904000000     1.302000000     0.213000000
C    -3.600000000     3.161000000     1.076000000
C    -3.639000000     3.271000000     2.442000000
H    -3.977000000     2.387000000     2.978000000
C    -3.220000000     4.320000000     0.316000000
H    -3.162000000     4.297000000    -0.769000000
C    -2.935000000     5.524000000     1.000000000
O    -2.780000000     6.629000000     0.198000000
C    -2.959000000     5.641000000     2.389000000
H    -2.780000000     6.563000000     2.935000000
C    -3.320000000     4.501000000     3.097000000
O    -3.594000000     4.599000000     4.453000000
C    -3.345000000     3.562000000     5.417000000
C    -2.136000000     2.850000000     5.303000000
H    -1.356000000     3.171000000     4.617000000
C    -4.214000000     3.275000000     6.451000000
H    -5.105000000     3.883000000     6.587000000
C    -3.895000000     2.305000000     7.391000000
H    -4.596000000     1.943000000     8.139000000
C    -2.685000000     1.673000000     7.228000000
H    -2.462000000     0.833000000     7.881000000
C    -1.803000000     1.903000000     6.235000000
O    -0.533000000     1.435000000     6.279000000
C    -0.072000000     0.210000000     5.667000000
C     1.213000000    -0.189000000     5.847000000
H     1.839000000     0.447000000     6.469000000
C     1.663000000    -1.431000000     5.349000000
O     2.994000000    -1.735000000     5.399000000
C     3.637000000    -2.766000000     4.713000000
C     4.448000000    -2.521000000     3.634000000
H     4.513000000    -1.491000000     3.290000000
C     3.600000000    -3.998000000     5.221000000
H     2.979000000    -4.154000000     6.099000000
C     4.311000000    -5.041000000     4.708000000
H     3.974000000    -6.043000000     4.960000000
C     5.200000000    -4.815000000     3.671000000
H     5.768000000    -5.594000000     3.168000000
C     5.308000000    -3.546000000     3.196000000
O     6.239000000    -3.287000000     2.128000000
C     5.687000000    -2.781000000     0.910000000
C     6.472000000    -1.894000000     0.183000000
H     7.350000000    -1.420000000     0.614000000
C     5.967000000    -1.457000000    -1.056000000
O     6.662000000    -0.520000000    -1.842000000
C     6.321000000     0.029000000    -3.067000000
C     5.663000000     1.237000000    -3.061000000
H     5.530000000     1.856000000    -2.178000000
C     6.545000000    -0.651000000    -4.236000000
H     7.125000000    -1.569000000    -4.194000000
C     6.200000000    -0.100000000    -5.422000000
H     6.156000000    -0.709000000    -6.321000000
C     5.465000000     1.059000000    -5.411000000
H     4.851000000     1.387000000    -6.246000000
C     5.301000000     1.833000000    -4.246000000
O     4.591000000     3.013000000    -4.186000000
C     3.241000000     3.122000000    -3.881000000
C     2.891000000     4.173000000    -3.143000000
H     3.680000000     4.808000000    -2.749000000
C     1.520000000     4.359000000    -2.786000000
O     1.241000000     5.531000000    -2.039000000
C     0.011000000     6.123000000    -2.010000000
C    -0.519000000     6.731000000    -3.146000000
H     0.019000000     6.797000000    -4.088000000
C    -1.714000000     7.417000000    -3.150000000
H    -2.149000000     7.979000000    -3.972000000
C    -2.452000000     7.418000000    -1.942000000
H    -3.448000000     7.838000000    -1.831000000
C    -1.932000000     6.799000000    -0.837000000
C    -0.658000000     6.219000000    -0.811000000
H    -0.249000000     5.709000000     0.057000000
O     4.581000000     4.575000000     3.024000000
H     3.828000000     4.454000000     2.446000000
H     4.493000000     5.472000000     3.348000000
O     0.182000000     5.990000000     4.185000000
H     0.576000000     5.565000000     3.423000000
H     0.660000000     5.631000000     4.933000000
O     6.854000000     3.265000000     2.348000000
H     7.500000000     3.606000000     2.967000000
H     6.073000000     3.798000000     2.500000000
O     0.036000000     8.733000000     3.694000000
H     0.109000000     7.874000000     4.110000000
H     0.677000000     8.711000000     2.984000000
O     7.918000000     2.030000000    -0.680000000
H     8.527000000     1.409000000    -0.280000000
H     7.087000000     1.872000000    -0.233000000
O    -2.149000000     6.780000000     5.981000000
H    -2.892000000     6.324000000     5.584000000
H    -1.379000000     6.378000000     5.580000000
O     4.349000000     5.452000000    -0.265000000
H     4.761000000     5.861000000     0.496000000
H     3.606000000     4.969000000     0.095000000
O     4.404000000     9.279000000    -0.227000000
H     4.198000000     8.453000000    -0.665000000
H     4.248000000     9.949000000    -0.892000000
O     3.491000000     7.434000000    -2.024000000
H     2.588000000     7.119000000    -2.061000000
H     3.990000000     6.689000000    -1.687000000
O     1.708000000     3.051000000     4.970000000
H     1.551000000     3.256000000     4.048000000
H     2.648000000     3.187000000     5.089000000
O     6.592000000     6.933000000     1.116000000
H     6.907000000     7.634000000     0.546000000
H     6.842000000     6.126000000     0.665000000
O     3.168000000     5.328000000     6.735000000
H     3.610000000     4.510000000     6.508000000
H     2.300000000     5.249000000     6.339000000
O     4.085000000     0.655000000     1.968000000
H     3.151000000     0.808000000     1.821000000
H     4.520000000     1.139000000     1.266000000
O     4.604000000     3.528000000     5.517000000
H     4.624000000     3.713000000     4.578000000
H     5.517000000     3.608000000     5.795000000
O     6.022000000     1.148000000     4.030000000
H     5.284000000     1.190000000     3.422000000
H     6.780000000     1.407000000     3.506000000
O     2.032000000     8.118000000     1.324000000
H     1.648000000     7.255000000     1.173000000
H     2.878000000     7.937000000     1.734000000
O     4.085000000     7.518000000     2.914000000
H     4.167000000     8.300000000     3.460000000
H     4.824000000     7.570000000     2.309000000
O     0.396000000     4.842000000     6.654000000
H     0.236000000     4.734000000     7.591000000
H     0.548000000     3.953000000     6.332000000
O     5.258000000     2.390000000     0.242000000
H     5.748000000     2.922000000     0.868000000
H     4.464000000     2.895000000     0.068000000
