201
-1266.04286
C    -2.855000000    -3.963000000     1.978000000
H    -2.714000000    -4.421000000     1.002000000
C    -3.425000000    -2.717000000     2.120000000
C    -3.631000000    -2.160000000     3.409000000
H    -4.069000000    -1.166000000     3.444000000
C    -3.719000000    -1.846000000     0.872000000
O    -4.218000000    -2.656000000    -0.307000000
H    -2.819000000    -1.339000000     0.494000000
O    -4.633000000    -0.828000000     1.054000000
C    -4.464000000     0.443000000     0.583000000
C    -3.997000000     1.446000000     1.443000000
H    -3.732000000     1.212000000     2.471000000
C    -3.671000000     2.699000000     0.896000000
O    -2.984000000     3.617000000     1.614000000
C    -3.861000000     2.960000000    -0.470000000
C    -3.393000000     4.277000000    -1.062000000
H    -3.930000000     4.490000000    -1.989000000
C    -1.900000000     4.268000000    -1.467000000
C    -1.570000000     3.901000000    -2.779000000
H    -2.376000000     3.445000000    -3.349000000
H    -3.604000000     5.149000000    -0.440000000
C    -4.511000000     2.033000000    -1.260000000
H    -4.745000000     2.250000000    -2.300000000
C    -4.826000000     0.742000000    -0.744000000
C    -5.337000000    -0.296000000    -1.739000000
H    -5.945000000     0.182000000    -2.510000000
H    -5.986000000    -1.012000000    -1.231000000
C    -4.180000000    -1.248000000    -2.322000000
C    -3.561000000    -0.954000000    -3.543000000
H    -3.970000000    -0.175000000    -4.181000000
C    -3.750000000    -2.352000000    -1.561000000
C    -2.690000000    -3.098000000    -2.033000000
H    -2.259000000    -3.936000000    -1.490000000
C    -2.071000000    -2.751000000    -3.257000000
O    -0.999000000    -3.473000000    -3.462000000
C     0.253000000    -2.874000000    -3.182000000
C     1.350000000    -3.818000000    -2.549000000
C     2.730000000    -3.662000000    -2.723000000
H     3.142000000    -2.935000000    -3.419000000
C     0.906000000    -4.770000000    -1.620000000
H    -0.165000000    -4.821000000    -1.445000000
O     0.783000000    -2.341000000    -4.389000000
H     0.091000000    -2.122000000    -2.396000000
C    -2.509000000    -1.672000000    -4.024000000
C    -1.741000000    -1.209000000    -5.301000000
H    -2.368000000    -0.561000000    -5.917000000
H    -1.420000000    -2.095000000    -5.853000000
C    -0.495000000    -0.399000000    -4.975000000
C    -0.681000000     1.002000000    -4.951000000
H    -1.678000000     1.371000000    -5.176000000
C     0.629000000    -0.957000000    -4.479000000
C     1.636000000    -0.130000000    -3.955000000
H     2.560000000    -0.536000000    -3.553000000
C     1.548000000     1.252000000    -3.984000000
O     2.636000000     2.033000000    -3.621000000
C     2.609000000     2.668000000    -2.325000000
C     3.974000000     2.558000000    -1.640000000
C     4.640000000     1.316000000    -1.618000000
H     4.255000000     0.495000000    -2.218000000
C     4.367000000     3.591000000    -0.781000000
H     3.731000000     4.472000000    -0.744000000
O     2.106000000     3.944000000    -2.646000000
H     1.922000000     2.218000000    -1.593000000
C     0.355000000     1.811000000    -4.482000000
C     0.128000000     3.332000000    -4.539000000
H    -0.654000000     3.548000000    -5.270000000
H     1.016000000     3.761000000    -5.006000000
C    -0.218000000     3.898000000    -3.202000000
C     0.819000000     4.276000000    -2.324000000
C     0.470000000     4.683000000    -1.059000000
H     1.141000000     4.915000000    -0.235000000
C    -0.817000000     4.570000000    -0.603000000
O    -1.042000000     4.699000000     0.790000000
C    -1.524000000     3.533000000     1.487000000
H    -1.169000000     2.637000000     0.958000000
C    -0.850000000     3.422000000     2.862000000
C    -1.571000000     2.933000000     3.984000000
H    -2.612000000     2.627000000     3.925000000
C     0.519000000     3.687000000     2.933000000
H     0.991000000     4.112000000     2.051000000
C     1.203000000     3.478000000     4.119000000
O     2.496000000     3.815000000     4.290000000
C     0.500000000     3.043000000     5.179000000
H     0.982000000     2.861000000     6.137000000
C    -0.845000000     2.668000000     5.153000000
O    -1.384000000     2.214000000     6.294000000
C    -2.460000000     1.345000000     6.295000000
C    -2.314000000     0.010000000     5.937000000
H    -1.458000000    -0.274000000     5.330000000
C    -3.625000000     1.893000000     6.810000000
H    -3.757000000     2.930000000     7.106000000
C    -4.747000000     1.084000000     6.793000000
H    -5.688000000     1.523000000     7.113000000
C    -4.604000000    -0.244000000     6.445000000
H    -5.499000000    -0.836000000     6.267000000
C    -3.399000000    -0.835000000     6.119000000
O    -3.258000000    -2.242000000     5.761000000
C    -3.179000000    -2.816000000     4.507000000
C    -2.702000000    -4.106000000     4.369000000
H    -2.534000000    -4.695000000     5.267000000
C    -2.557000000    -4.684000000     3.128000000
O    -2.039000000    -5.984000000     3.142000000
C    -1.577000000    -6.634000000     1.966000000
C    -0.384000000    -6.271000000     1.409000000
H     0.180000000    -5.449000000     1.844000000
C    -2.296000000    -7.664000000     1.423000000
H    -3.203000000    -8.083000000     1.851000000
C    -1.864000000    -8.348000000     0.269000000
H    -2.396000000    -9.201000000    -0.144000000
C    -0.653000000    -7.994000000    -0.293000000
H    -0.287000000    -8.581000000    -1.131000000
C     0.069000000    -6.949000000     0.240000000
O     1.338000000    -6.693000000    -0.223000000
C     1.774000000    -5.613000000    -0.953000000
C     3.146000000    -5.443000000    -1.113000000
H     3.760000000    -6.216000000    -0.658000000
C     3.646000000    -4.428000000    -1.948000000
O     4.994000000    -4.312000000    -2.148000000
C     5.679000000    -3.156000000    -2.387000000
C     5.562000000    -2.097000000    -1.462000000
H     4.806000000    -2.161000000    -0.684000000
C     6.544000000    -3.129000000    -3.444000000
H     6.505000000    -3.977000000    -4.123000000
C     7.212000000    -1.929000000    -3.724000000
H     7.835000000    -1.797000000    -4.605000000
C     7.102000000    -0.833000000    -2.841000000
H     7.655000000     0.094000000    -2.967000000
C     6.335000000    -0.953000000    -1.628000000
O     6.318000000     0.023000000    -0.633000000
C     5.717000000     1.186000000    -0.758000000
C     6.079000000     2.163000000     0.137000000
H     6.882000000     1.982000000     0.848000000
C     5.421000000     3.385000000     0.097000000
O     5.862000000     4.363000000     0.975000000
C     5.005000000     4.957000000     1.863000000
C     4.725000000     6.310000000     1.774000000
H     5.237000000     6.872000000     0.997000000
C     3.795000000     6.928000000     2.579000000
H     3.713000000     8.010000000     2.647000000
C     3.029000000     6.086000000     3.432000000
H     2.212000000     6.375000000     4.088000000
C     3.204000000     4.685000000     3.440000000
C     4.274000000     4.117000000     2.672000000
H     4.529000000     3.061000000     2.710000000
O     3.730000000    -5.228000000     5.828000000
H     3.926000000    -4.357000000     6.175000000
H     2.924000000    -5.109000000     5.326000000
O     9.150000000     0.346000000     3.720000000
H     8.487000000    -0.266000000     4.041000000
H     8.734000000     1.205000000     3.783000000
O     8.319000000     3.394000000     3.015000000
H     7.530000000     3.044000000     3.429000000
H     7.992000000     3.945000000     2.303000000
O     2.142000000    -4.995000000     3.537000000
H     2.403000000    -4.385000000     2.847000000
H     1.621000000    -4.464000000     4.141000000
O     5.401000000    -5.926000000     3.616000000
H     4.807000000    -6.641000000     3.388000000
H     4.874000000    -5.344000000     4.165000000
O     8.062000000    -3.537000000     5.436000000
H     7.705000000    -2.826000000     4.903000000
H     8.991000000    -3.326000000     5.525000000
O     4.281000000    -2.565000000     6.216000000
H     4.278000000    -1.984000000     6.977000000
H     3.944000000    -2.026000000     5.501000000
O     0.333000000    -4.174000000     5.471000000
H    -0.254000000    -4.901000000     5.678000000
H     0.362000000    -3.654000000     6.274000000
O     2.244000000    -0.248000000     7.793000000
H     2.304000000     0.698000000     7.921000000
H     2.149000000    -0.357000000     6.847000000
O     6.620000000     1.929000000     4.475000000
H     6.037000000     2.129000000     5.208000000
H     6.436000000     1.013000000     4.267000000
O     6.866000000    -1.298000000     4.271000000
H     6.033000000    -1.340000000     4.740000000
H     6.666000000    -1.637000000     3.398000000
O     5.708000000    -0.685000000     7.933000000
H     6.059000000     0.002000000     8.500000000
H     6.432000000    -1.303000000     7.829000000
O     0.615000000    -2.428000000     7.756000000
H    -0.205000000    -1.985000000     7.977000000
H     1.277000000    -1.737000000     7.790000000
O     3.060000000    -2.808000000     2.216000000
H     4.013000000    -2.718000000     2.205000000
H     2.737000000    -1.915000000     2.339000000
O     5.425000000     4.180000000     7.851000000
H     5.306000000     3.241000000     7.704000000
H     5.954000000     4.232000000     8.647000000
O     2.195000000    -0.874000000    10.829000000
H     2.374000000    -1.001000000     9.898000000
H     1.846000000     0.015000000    10.887000000
O     4.529000000     1.554000000     6.547000000
H     3.926000000     1.217000000     5.884000000
H     4.638000000     0.829000000     7.162000000
O     5.516000000    -1.339000000     2.082000000
H     5.933000000    -0.892000000     1.345000000
H     5.125000000    -0.635000000     2.599000000
O     2.260000000     2.445000000     8.178000000
H     2.982000000     2.134000000     7.632000000
H     2.327000000     3.399000000     8.143000000
