201
-1256.11602
C     1.254000000    -1.951000000     4.686000000
H     1.790000000    -2.656000000     4.055000000
C    -0.131000000    -1.840000000     4.567000000
C    -0.851000000    -0.934000000     5.343000000
H    -1.916000000    -0.762000000     5.215000000
C    -0.921000000    -2.586000000     3.440000000
O    -0.415000000    -3.966000000     3.264000000
H    -0.850000000    -1.913000000     2.573000000
O    -2.343000000    -2.626000000     3.708000000
C    -3.125000000    -2.351000000     2.617000000
C    -3.612000000    -1.064000000     2.557000000
H    -3.390000000    -0.343000000     3.340000000
C    -4.310000000    -0.623000000     1.416000000
O    -4.612000000     0.743000000     1.329000000
C    -4.518000000    -1.558000000     0.395000000
C    -5.329000000    -1.127000000    -0.841000000
H    -5.827000000    -1.984000000    -1.301000000
C    -4.440000000    -0.489000000    -1.959000000
C    -4.053000000    -1.281000000    -3.051000000
H    -4.499000000    -2.258000000    -3.213000000
H    -6.159000000    -0.452000000    -0.622000000
C    -4.211000000    -2.909000000     0.529000000
H    -4.520000000    -3.588000000    -0.261000000
C    -3.394000000    -3.303000000     1.635000000
C    -2.786000000    -4.718000000     1.605000000
H    -3.353000000    -5.422000000     0.992000000
H    -2.771000000    -5.091000000     2.631000000
C    -1.374000000    -4.651000000     1.113000000
C    -1.155000000    -4.966000000    -0.215000000
H    -1.995000000    -5.143000000    -0.882000000
C    -0.294000000    -4.380000000     1.970000000
C     1.006000000    -4.276000000     1.370000000
H     1.903000000    -4.172000000     1.975000000
C     1.237000000    -4.434000000     0.016000000
O     2.447000000    -4.268000000    -0.512000000
C     2.577000000    -2.983000000    -1.240000000
C     3.880000000    -2.322000000    -0.905000000
C     4.410000000    -1.300000000    -1.693000000
H     3.767000000    -0.992000000    -2.513000000
C     4.448000000    -2.516000000     0.360000000
H     4.014000000    -3.339000000     0.921000000
O     2.638000000    -3.280000000    -2.679000000
H     1.729000000    -2.298000000    -1.091000000
C     0.088000000    -4.790000000    -0.765000000
C     0.278000000    -4.958000000    -2.268000000
H    -0.473000000    -5.692000000    -2.566000000
H     1.245000000    -5.412000000    -2.494000000
C     0.264000000    -3.699000000    -3.118000000
C    -0.990000000    -3.258000000    -3.654000000
H    -1.795000000    -3.962000000    -3.461000000
C     1.457000000    -2.990000000    -3.332000000
C     1.431000000    -1.875000000    -4.161000000
H     2.292000000    -1.228000000    -4.308000000
C     0.197000000    -1.447000000    -4.621000000
O     0.206000000    -0.207000000    -5.158000000
C    -0.419000000     0.821000000    -4.333000000
C     0.473000000     2.037000000    -4.323000000
C     1.725000000     2.124000000    -4.925000000
H     2.041000000     1.224000000    -5.447000000
C     0.067000000     3.169000000    -3.555000000
H    -0.893000000     3.274000000    -3.057000000
O    -1.759000000     1.099000000    -4.768000000
H    -0.581000000     0.526000000    -3.285000000
C    -1.004000000    -2.155000000    -4.436000000
C    -2.390000000    -1.702000000    -4.953000000
H    -2.903000000    -2.634000000    -5.197000000
H    -2.343000000    -1.131000000    -5.882000000
C    -3.094000000    -0.798000000    -3.931000000
C    -2.747000000     0.571000000    -3.970000000
C    -3.267000000     1.346000000    -2.949000000
H    -2.935000000     2.379000000    -2.886000000
C    -3.994000000     0.826000000    -1.905000000
O    -4.257000000     1.706000000    -0.867000000
C    -3.761000000     1.617000000     0.537000000
H    -2.802000000     1.079000000     0.515000000
C    -3.491000000     2.963000000     1.182000000
C    -3.279000000     3.008000000     2.526000000
H    -3.369000000     2.117000000     3.142000000
C    -3.414000000     4.177000000     0.486000000
H    -3.439000000     4.091000000    -0.597000000
C    -3.011000000     5.315000000     1.106000000
O    -2.788000000     6.474000000     0.358000000
C    -2.832000000     5.370000000     2.428000000
H    -2.546000000     6.229000000     3.029000000
C    -3.087000000     4.201000000     3.166000000
O    -2.634000000     4.250000000     4.432000000
C    -2.833000000     3.245000000     5.333000000
C    -1.774000000     2.429000000     5.564000000
H    -0.947000000     2.515000000     4.864000000
C    -4.012000000     3.093000000     5.979000000
H    -4.777000000     3.805000000     5.682000000
C    -4.159000000     2.111000000     6.972000000
H    -5.075000000     2.103000000     7.558000000
C    -3.012000000     1.359000000     7.253000000
H    -3.159000000     0.541000000     7.953000000
C    -1.831000000     1.557000000     6.657000000
O    -0.736000000     0.846000000     7.035000000
C    -0.210000000    -0.167000000     6.296000000
C     1.210000000    -0.248000000     6.394000000
H     1.755000000     0.451000000     7.023000000
C     1.958000000    -1.084000000     5.558000000
O     3.347000000    -0.871000000     5.544000000
C     4.159000000    -1.784000000     4.890000000
C     4.814000000    -1.468000000     3.707000000
H     4.829000000    -0.443000000     3.345000000
C     4.256000000    -3.089000000     5.390000000
H     3.641000000    -3.295000000     6.262000000
C     4.940000000    -4.050000000     4.722000000
H     4.888000000    -5.078000000     5.070000000
C     5.715000000    -3.712000000     3.650000000
H     6.310000000    -4.459000000     3.131000000
C     5.597000000    -2.383000000     3.102000000
O     6.235000000    -2.147000000     1.930000000
C     5.597000000    -1.884000000     0.718000000
C     6.163000000    -0.964000000    -0.099000000
H     7.034000000    -0.397000000     0.218000000
C     5.596000000    -0.707000000    -1.324000000
O     6.121000000     0.349000000    -2.065000000
C     5.788000000     0.593000000    -3.385000000
C     4.802000000     1.519000000    -3.670000000
H     4.161000000     1.778000000    -2.831000000
C     6.712000000     0.248000000    -4.364000000
H     7.503000000    -0.452000000    -4.110000000
C     6.615000000     0.771000000    -5.670000000
H     7.344000000     0.484000000    -6.424000000
C     5.633000000     1.728000000    -5.953000000
H     5.607000000     2.216000000    -6.924000000
C     4.665000000     2.018000000    -4.973000000
O     3.827000000     3.087000000    -5.282000000
C     2.569000000     3.176000000    -4.795000000
C     2.182000000     4.262000000    -4.051000000
H     2.759000000     5.183000000    -4.038000000
C     0.886000000     4.279000000    -3.495000000
O     0.676000000     5.417000000    -2.690000000
C    -0.531000000     5.952000000    -2.444000000
C    -1.277000000     6.449000000    -3.534000000
H    -0.811000000     6.359000000    -4.512000000
C    -2.456000000     7.011000000    -3.271000000
H    -3.006000000     7.476000000    -4.085000000
C    -2.967000000     7.006000000    -1.993000000
H    -3.962000000     7.397000000    -1.794000000
C    -2.250000000     6.576000000    -0.916000000
C    -1.015000000     6.081000000    -1.170000000
H    -0.463000000     5.583000000    -0.377000000
O     1.422000000     2.523000000     4.299000000
H     1.979000000     2.688000000     5.059000000
H     1.326000000     3.379000000     3.882000000
O     3.214000000     3.500000000     6.664000000
H     3.709000000     4.295000000     6.464000000
H     3.755000000     3.036000000     7.303000000
O     1.858000000     8.260000000    -0.907000000
H     1.692000000     9.050000000    -1.421000000
H     1.241000000     8.314000000    -0.177000000
O     2.209000000     7.645000000    -4.660000000
H     2.668000000     7.291000000    -3.899000000
H     1.499000000     8.169000000    -4.289000000
O     4.968000000     4.723000000    -1.208000000
H     5.321000000     3.929000000    -0.805000000
H     4.118000000     4.848000000    -0.788000000
O     7.496000000     3.541000000     1.949000000
H     6.709000000     3.073000000     1.671000000
H     7.612000000     4.226000000     1.290000000
O     6.031000000     8.465000000     0.495000000
H     5.247000000     8.996000000     0.640000000
H     5.795000000     7.596000000     0.819000000
O     3.345000000     6.920000000     1.474000000
H     2.902000000     7.733000000     1.232000000
H     2.896000000     6.243000000     0.968000000
O     2.929000000     1.211000000     2.267000000
H     2.201000000     0.664000000     1.974000000
H     2.666000000     1.515000000     3.136000000
O     4.944000000     5.711000000     6.606000000
H     5.680000000     6.220000000     6.267000000
H     4.193000000     6.004000000     6.090000000
O     2.826000000     6.207000000     5.082000000
H     3.077000000     6.867000000     4.435000000
H     2.044000000     5.796000000     4.714000000
O     3.433000000     6.680000000    -2.523000000
H     3.911000000     5.950000000    -2.130000000
H     3.054000000     7.147000000    -1.778000000
O     4.707000000     2.624000000     0.765000000
H     3.999000000     3.222000000     0.526000000
H     4.264000000     1.881000000     1.176000000
O     0.231000000     5.194000000     4.181000000
H     0.183000000     5.312000000     3.233000000
H    -0.659000000     5.367000000     4.490000000
O     0.442000000     4.750000000     7.055000000
H     1.345000000     4.502000000     7.252000000
H     0.347000000     4.581000000     6.117000000
O     5.366000000     6.217000000     3.248000000
H     4.510000000     6.176000000     2.821000000
H     5.729000000     5.338000000     3.143000000
O    -0.152000000     7.099000000     1.906000000
H     0.390000000     6.376000000     1.592000000
H    -0.988000000     6.986000000     1.453000000
O    -0.909000000     9.105000000     3.486000000
H    -0.954000000     8.636000000     4.319000000
H    -0.221000000     8.656000000     2.995000000
O     6.964000000     5.846000000    -3.070000000
H     6.444000000     6.196000000    -3.794000000
H     6.316000000     5.585000000    -2.415000000
