201
-1233.45240
C     1.695000000    -1.609000000     4.142000000
H     2.222000000    -2.273000000     3.461000000
C     0.284000000    -1.566000000     4.149000000
C    -0.338000000    -0.809000000     5.069000000
H    -1.425000000    -0.791000000     5.032000000
C    -0.480000000    -2.402000000     3.095000000
O     0.026000000    -3.684000000     2.994000000
H    -0.248000000    -1.918000000     2.135000000
O    -1.830000000    -2.557000000     3.470000000
C    -2.674000000    -2.318000000     2.452000000
C    -3.306000000    -1.045000000     2.410000000
H    -3.076000000    -0.309000000     3.176000000
C    -4.244000000    -0.778000000     1.429000000
O    -4.626000000     0.484000000     1.463000000
C    -4.535000000    -1.696000000     0.405000000
C    -5.370000000    -1.240000000    -0.772000000
H    -5.862000000    -2.141000000    -1.145000000
C    -4.548000000    -0.529000000    -1.819000000
C    -3.969000000    -1.267000000    -2.822000000
H    -4.147000000    -2.337000000    -2.893000000
H    -6.240000000    -0.637000000    -0.503000000
C    -4.013000000    -3.001000000     0.548000000
H    -4.418000000    -3.743000000    -0.135000000
C    -3.054000000    -3.299000000     1.575000000
C    -2.439000000    -4.637000000     1.632000000
H    -3.077000000    -5.285000000     1.027000000
H    -2.411000000    -4.999000000     2.662000000
C    -1.031000000    -4.666000000     1.068000000
C    -0.890000000    -5.109000000    -0.245000000
H    -1.727000000    -5.347000000    -0.896000000
C     0.062000000    -4.143000000     1.698000000
C     1.319000000    -4.242000000     1.138000000
H     2.202000000    -4.058000000     1.745000000
C     1.437000000    -4.598000000    -0.194000000
O     2.624000000    -4.320000000    -0.828000000
C     2.746000000    -3.006000000    -1.446000000
C     3.927000000    -2.283000000    -0.927000000
C     4.389000000    -1.133000000    -1.620000000
H     3.707000000    -0.699000000    -2.347000000
C     4.751000000    -2.821000000     0.085000000
H     4.366000000    -3.709000000     0.580000000
O     2.677000000    -3.189000000    -2.832000000
H     1.924000000    -2.315000000    -1.204000000
C     0.297000000    -4.976000000    -0.950000000
C     0.427000000    -5.183000000    -2.478000000
H    -0.335000000    -5.888000000    -2.815000000
H     1.338000000    -5.743000000    -2.700000000
C     0.384000000    -3.850000000    -3.281000000
C    -0.891000000    -3.468000000    -3.794000000
H    -1.737000000    -4.144000000    -3.704000000
C     1.435000000    -2.939000000    -3.414000000
C     1.224000000    -1.731000000    -3.968000000
H     1.999000000    -1.000000000    -4.185000000
C    -0.001000000    -1.373000000    -4.526000000
O    -0.074000000    -0.148000000    -5.006000000
C    -0.677000000     0.962000000    -4.236000000
C     0.207000000     2.285000000    -4.192000000
C     1.478000000     2.300000000    -4.651000000
H     1.913000000     1.414000000    -5.106000000
C    -0.342000000     3.497000000    -3.757000000
H    -1.414000000     3.546000000    -3.582000000
O    -2.050000000     1.250000000    -4.599000000
H    -0.703000000     0.667000000    -3.176000000
C    -1.118000000    -2.181000000    -4.381000000
C    -2.516000000    -1.690000000    -4.843000000
H    -3.146000000    -2.567000000    -5.005000000
H    -2.396000000    -1.167000000    -5.794000000
C    -3.160000000    -0.745000000    -3.768000000
C    -2.918000000     0.630000000    -3.721000000
C    -3.428000000     1.384000000    -2.724000000
H    -3.376000000     2.469000000    -2.708000000
C    -4.152000000     0.826000000    -1.670000000
O    -4.622000000     1.624000000    -0.672000000
C    -3.904000000     1.419000000     0.577000000
H    -2.926000000     0.972000000     0.347000000
C    -3.707000000     2.724000000     1.240000000
C    -3.546000000     2.755000000     2.607000000
H    -3.721000000     1.943000000     3.308000000
C    -3.328000000     3.866000000     0.463000000
H    -3.426000000     3.968000000    -0.615000000
C    -3.008000000     5.062000000     1.075000000
O    -2.963000000     6.252000000     0.364000000
C    -2.744000000     5.076000000     2.406000000
H    -2.326000000     5.954000000     2.893000000
C    -3.033000000     3.940000000     3.189000000
O    -2.777000000     4.058000000     4.540000000
C    -2.719000000     3.119000000     5.550000000
C    -1.569000000     2.427000000     5.948000000
H    -0.643000000     2.698000000     5.447000000
C    -3.845000000     2.942000000     6.407000000
H    -4.765000000     3.478000000     6.193000000
C    -3.871000000     1.891000000     7.341000000
H    -4.713000000     1.624000000     7.975000000
C    -2.753000000     1.107000000     7.450000000
H    -2.732000000     0.194000000     8.039000000
C    -1.555000000     1.386000000     6.843000000
O    -0.333000000     0.684000000     6.989000000
C     0.311000000    -0.154000000     6.107000000
C     1.711000000    -0.094000000     6.021000000
H     2.261000000     0.404000000     6.815000000
C     2.391000000    -0.942000000     5.121000000
O     3.772000000    -0.980000000     5.202000000
C     4.537000000    -2.007000000     4.655000000
C     5.177000000    -1.757000000     3.427000000
H     5.250000000    -0.798000000     2.919000000
C     4.748000000    -3.210000000     5.336000000
H     4.303000000    -3.400000000     6.310000000
C     5.545000000    -4.200000000     4.757000000
H     5.779000000    -5.133000000     5.263000000
C     6.124000000    -4.022000000     3.498000000
H     6.723000000    -4.754000000     2.963000000
C     5.881000000    -2.799000000     2.885000000
O     6.562000000    -2.543000000     1.664000000
C     5.879000000    -2.121000000     0.590000000
C     6.233000000    -0.933000000    -0.038000000
H     7.063000000    -0.324000000     0.311000000
C     5.398000000    -0.412000000    -1.088000000
O     5.759000000     0.834000000    -1.594000000
C     5.545000000     1.119000000    -2.936000000
C     4.607000000     2.083000000    -3.285000000
H     4.017000000     2.565000000    -2.509000000
C     6.428000000     0.630000000    -3.898000000
H     7.165000000    -0.107000000    -3.590000000
C     6.381000000     1.100000000    -5.149000000
H     7.095000000     0.701000000    -5.865000000
C     5.474000000     2.157000000    -5.469000000
H     5.528000000     2.526000000    -6.490000000
C     4.486000000     2.514000000    -4.600000000
O     3.557000000     3.496000000    -5.010000000
C     2.209000000     3.478000000    -4.601000000
C     1.609000000     4.644000000    -4.187000000
H     2.170000000     5.559000000    -4.356000000
C     0.369000000     4.694000000    -3.744000000
O    -0.205000000     5.992000000    -3.443000000
C    -1.487000000     6.171000000    -2.965000000
C    -2.559000000     6.554000000    -3.755000000
H    -2.461000000     6.600000000    -4.837000000
C    -3.804000000     6.712000000    -3.154000000
H    -4.701000000     6.909000000    -3.735000000
C    -3.917000000     6.641000000    -1.762000000
H    -4.906000000     6.795000000    -1.339000000
C    -2.806000000     6.269000000    -0.997000000
C    -1.585000000     6.109000000    -1.591000000
H    -0.687000000     5.833000000    -1.045000000
O     4.785000000     2.678000000     4.176000000
H     5.706000000     2.866000000     3.996000000
H     4.320000000     3.465000000     3.892000000
O    -1.197000000     9.173000000     0.290000000
H    -0.603000000     9.923000000     0.264000000
H    -1.725000000     9.313000000     1.076000000
O     3.994000000     5.883000000    -0.348000000
H     4.264000000     4.964000000    -0.359000000
H     3.192000000     5.890000000     0.175000000
O     1.329000000     9.133000000    -3.053000000
H     1.794000000     9.822000000    -2.578000000
H     1.261000000     8.414000000    -2.425000000
O    -1.455000000     7.970000000     4.634000000
H    -0.558000000     7.755000000     4.378000000
H    -1.396000000     8.170000000     5.569000000
O     5.713000000     6.072000000     2.345000000
H     4.922000000     6.186000000     2.872000000
H     5.410000000     6.144000000     1.440000000
O     3.520000000     9.060000000     0.074000000
H     3.242000000     9.770000000    -0.505000000
H     2.969000000     8.318000000    -0.176000000
O     1.178000000     7.582000000    -0.950000000
H     0.399000000     8.027000000    -0.614000000
H     1.303000000     6.840000000    -0.358000000
O     2.650000000    -0.570000000     1.329000000
H     2.632000000    -0.187000000     2.206000000
H     2.334000000     0.128000000     0.756000000
O     3.075000000     6.595000000     5.904000000
H     3.432000000     7.173000000     6.579000000
H     2.399000000     7.118000000     5.474000000
O     5.070000000     7.400000000    -2.497000000
H     4.325000000     6.980000000    -2.067000000
H     4.747000000     7.626000000    -3.369000000
O     4.533000000     3.173000000     0.318000000
H     5.159000000     2.713000000     0.878000000
H     3.818000000     3.415000000     0.906000000
O     3.179000000     5.014000000     3.831000000
H     2.298000000     5.048000000     3.460000000
H     3.128000000     5.552000000     4.621000000
O     0.513000000     5.387000000     8.206000000
H     0.517000000     4.553000000     8.675000000
H     0.509000000     5.142000000     7.281000000
O    -4.144000000     7.810000000     4.663000000
H    -4.086000000     7.877000000     5.616000000
H    -3.241000000     7.677000000     4.377000000
O     1.186000000     7.440000000     3.902000000
H     1.848000000     7.854000000     3.348000000
H     0.785000000     6.777000000     3.341000000
O    -1.375000000    10.004000000     2.847000000
H    -2.055000000    10.394000000     3.397000000
H    -1.230000000     9.137000000     3.225000000
O    -0.001000000     4.963000000     5.365000000
H     0.562000000     4.859000000     4.598000000
H    -0.888000000     5.008000000     5.006000000
O     2.359000000     9.783000000     2.341000000
H     2.797000000     9.574000000     1.517000000
H     1.485000000    10.075000000     2.081000000
