201
-1247.83266
C     0.342000000    -3.033000000     4.277000000
H     1.124000000    -3.231000000     3.549000000
C    -0.931000000    -3.390000000     3.874000000
C    -1.988000000    -3.009000000     4.737000000
H    -3.027000000    -3.208000000     4.487000000
C    -1.210000000    -3.754000000     2.420000000
O    -0.329000000    -4.861000000     2.047000000
H    -0.882000000    -2.925000000     1.774000000
O    -2.637000000    -3.976000000     2.079000000
C    -3.128000000    -3.407000000     0.913000000
C    -3.950000000    -2.237000000     1.059000000
H    -4.130000000    -1.710000000     1.992000000
C    -4.252000000    -1.552000000    -0.116000000
O    -4.761000000    -0.271000000    -0.035000000
C    -3.891000000    -2.068000000    -1.359000000
C    -4.432000000    -1.458000000    -2.685000000
H    -4.627000000    -2.292000000    -3.362000000
C    -3.479000000    -0.442000000    -3.246000000
C    -2.589000000    -0.841000000    -4.231000000
H    -2.504000000    -1.901000000    -4.454000000
H    -5.410000000    -0.984000000    -2.580000000
C    -3.196000000    -3.250000000    -1.464000000
H    -2.894000000    -3.685000000    -2.413000000
C    -2.861000000    -3.940000000    -0.305000000
C    -2.072000000    -5.244000000    -0.415000000
H    -2.365000000    -5.737000000    -1.344000000
H    -2.255000000    -5.933000000     0.413000000
C    -0.572000000    -4.918000000    -0.356000000
C     0.057000000    -4.741000000    -1.595000000
H    -0.434000000    -4.977000000    -2.535000000
C     0.175000000    -4.823000000     0.785000000
C     1.513000000    -4.468000000     0.764000000
H     2.072000000    -4.349000000     1.688000000
C     2.063000000    -4.156000000    -0.484000000
O     3.316000000    -3.636000000    -0.462000000
C     3.453000000    -2.233000000    -0.797000000
C     4.584000000    -1.560000000    -0.009000000
C     5.298000000    -0.420000000    -0.513000000
H     5.223000000    -0.149000000    -1.563000000
C     4.858000000    -1.977000000     1.325000000
H     4.298000000    -2.851000000     1.646000000
O     3.728000000    -2.023000000    -2.187000000
H     2.456000000    -1.790000000    -0.652000000
C     1.374000000    -4.387000000    -1.685000000
C     1.921000000    -4.076000000    -3.061000000
H     1.405000000    -4.742000000    -3.756000000
H     2.983000000    -4.325000000    -3.119000000
C     1.777000000    -2.662000000    -3.521000000
C     0.691000000    -2.196000000    -4.257000000
H    -0.108000000    -2.854000000    -4.587000000
C     2.739000000    -1.750000000    -3.122000000
C     2.717000000    -0.423000000    -3.500000000
H     3.381000000     0.319000000    -3.063000000
C     1.690000000     0.033000000    -4.300000000
O     1.575000000     1.442000000    -4.414000000
C     0.552000000     2.148000000    -3.673000000
C     0.955000000     3.514000000    -3.175000000
C     2.245000000     3.625000000    -2.545000000
H     2.914000000     2.773000000    -2.630000000
C     0.100000000     4.580000000    -3.120000000
H    -0.800000000     4.450000000    -3.716000000
O    -0.600000000     2.173000000    -4.516000000
H     0.314000000     1.533000000    -2.793000000
C     0.665000000    -0.843000000    -4.705000000
C    -0.467000000    -0.396000000    -5.601000000
H    -0.823000000    -1.256000000    -6.172000000
H    -0.199000000     0.412000000    -6.284000000
C    -1.636000000     0.053000000    -4.664000000
C    -1.665000000     1.395000000    -4.242000000
C    -2.625000000     1.889000000    -3.313000000
H    -2.639000000     2.908000000    -2.936000000
C    -3.518000000     0.915000000    -2.832000000
O    -4.331000000     1.217000000    -1.825000000
C    -3.943000000     0.790000000    -0.490000000
H    -2.944000000     0.365000000    -0.671000000
C    -3.875000000     1.896000000     0.523000000
C    -3.978000000     1.554000000     1.819000000
H    -4.035000000     0.581000000     2.300000000
C    -3.681000000     3.255000000     0.089000000
H    -3.573000000     3.530000000    -0.957000000
C    -3.729000000     4.307000000     1.043000000
O    -3.686000000     5.635000000     0.713000000
C    -3.904000000     3.919000000     2.367000000
H    -3.903000000     4.704000000     3.118000000
C    -3.904000000     2.566000000     2.766000000
O    -3.686000000     2.319000000     4.080000000
C    -4.150000000     1.170000000     4.673000000
C    -3.256000000     0.273000000     5.184000000
H    -2.215000000     0.565000000     5.075000000
C    -5.505000000     0.953000000     4.911000000
H    -6.227000000     1.657000000     4.505000000
C    -5.961000000    -0.206000000     5.526000000
H    -7.022000000    -0.414000000     5.411000000
C    -5.058000000    -1.137000000     6.020000000
H    -5.441000000    -2.033000000     6.500000000
C    -3.682000000    -0.847000000     5.907000000
O    -2.787000000    -1.672000000     6.491000000
C    -1.727000000    -2.230000000     5.820000000
C    -0.451000000    -1.820000000     6.189000000
H    -0.316000000    -1.096000000     6.990000000
C     0.641000000    -2.331000000     5.496000000
O     1.886000000    -1.987000000     5.885000000
C     2.987000000    -2.596000000     5.394000000
C     3.929000000    -1.802000000     4.743000000
H     3.793000000    -0.724000000     4.744000000
C     3.149000000    -3.962000000     5.448000000
H     2.407000000    -4.588000000     5.939000000
C     4.216000000    -4.510000000     4.827000000
H     4.358000000    -5.588000000     4.832000000
C     5.230000000    -3.789000000     4.202000000
H     6.038000000    -4.322000000     3.708000000
C     5.079000000    -2.399000000     4.128000000
O     6.029000000    -1.678000000     3.417000000
C     5.791000000    -1.350000000     2.085000000
C     6.631000000    -0.330000000     1.520000000
H     7.397000000     0.113000000     2.152000000
C     6.367000000     0.150000000     0.226000000
O     7.125000000     1.217000000    -0.324000000
C     6.638000000     2.219000000    -1.086000000
C     5.560000000     3.051000000    -0.779000000
H     5.090000000     2.919000000     0.192000000
C     7.100000000     2.319000000    -2.384000000
H     7.986000000     1.728000000    -2.603000000
C     6.529000000     3.125000000    -3.304000000
H     6.899000000     3.083000000    -4.325000000
C     5.419000000     3.931000000    -2.993000000
H     4.941000000     4.508000000    -3.780000000
C     4.987000000     3.990000000    -1.697000000
O     3.957000000     4.868000000    -1.360000000
C     2.657000000     4.805000000    -1.972000000
C     1.836000000     5.932000000    -2.003000000
H     2.222000000     6.903000000    -1.702000000
C     0.487000000     5.796000000    -2.495000000
O    -0.389000000     6.810000000    -2.535000000
C    -1.735000000     6.660000000    -2.178000000
C    -2.780000000     7.204000000    -2.969000000
H    -2.571000000     7.695000000    -3.916000000
C    -4.071000000     7.284000000    -2.569000000
H    -4.743000000     7.759000000    -3.280000000
C    -4.425000000     6.633000000    -1.385000000
H    -5.422000000     6.708000000    -0.959000000
C    -3.462000000     6.080000000    -0.524000000
C    -2.084000000     6.112000000    -0.940000000
H    -1.311000000     5.779000000    -0.251000000
O     3.239000000     2.711000000     9.307000000
H     3.436000000     3.050000000     8.434000000
H     2.813000000     3.440000000     9.757000000
O     5.862000000     1.467000000     4.859000000
H     5.075000000     1.683000000     4.360000000
H     5.627000000     0.677000000     5.347000000
O     1.276000000     5.631000000     6.689000000
H     1.086000000     5.898000000     7.589000000
H     1.362000000     6.454000000     6.209000000
O     4.677000000     1.474000000     7.333000000
H     3.948000000     0.858000000     7.403000000
H     4.296000000     2.252000000     6.927000000
O     6.877000000    -0.012000000     8.527000000
H     6.384000000     0.551000000     7.929000000
H     7.501000000     0.578000000     8.950000000
O     0.141000000     3.718000000     1.278000000
H     0.437000000     3.883000000     2.173000000
H     0.247000000     2.775000000     1.160000000
O     7.020000000     3.655000000     6.162000000
H     6.211000000     3.148000000     6.234000000
H     7.244000000     3.617000000     5.232000000
O    -0.550000000     6.318000000     2.394000000
H     0.365000000     6.317000000     2.675000000
H    -0.698000000     5.435000000     2.056000000
O     4.468000000     4.112000000     2.392000000
H     4.299000000     3.200000000     2.628000000
H     5.415000000     4.153000000     2.257000000
O     3.976000000     6.581000000     0.886000000
H     3.991000000     6.066000000     0.079000000
H     4.670000000     6.201000000     1.425000000
O     7.695000000     5.176000000     1.917000000
H     8.085000000     5.024000000     1.056000000
H     7.569000000     4.300000000     2.281000000
O     2.096000000     6.258000000     2.664000000
H     2.535000000     5.500000000     3.049000000
H     2.537000000     6.390000000     1.825000000
O     1.906000000     0.733000000     6.879000000
H     1.943000000     1.271000000     6.088000000
H     1.727000000    -0.151000000     6.559000000
O     7.747000000     2.427000000     3.360000000
H     7.092000000     1.913000000     3.834000000
H     8.586000000     2.108000000     3.691000000
O    -0.488000000     2.300000000     7.917000000
H     0.329000000     1.838000000     7.733000000
H    -0.759000000     2.656000000     7.071000000
O    -2.664000000     4.377000000     6.070000000
H    -3.113000000     3.698000000     5.566000000
H    -1.792000000     4.429000000     5.679000000
O     0.105000000     3.802000000     5.213000000
H     0.507000000     4.484000000     5.752000000
H     0.802000000     3.160000000     5.081000000
O     3.462000000     3.991000000     6.074000000
H     2.656000000     4.501000000     6.151000000
H     3.214000000     3.227000000     5.553000000
O     3.961000000     6.682000000     8.059000000
H     3.141000000     6.763000000     8.546000000
H     3.806000000     5.960000000     7.449000000
