201
-1229.03508
C     2.718000000    -2.143000000     4.072000000
H     3.501000000    -2.380000000     3.357000000
C     1.382000000    -2.454000000     3.918000000
C     0.494000000    -2.140000000     4.968000000
H    -0.551000000    -2.437000000     4.993000000
C     0.804000000    -3.237000000     2.630000000
O     1.922000000    -4.073000000     2.274000000
H     0.662000000    -2.455000000     1.869000000
O    -0.288000000    -3.946000000     3.020000000
C    -1.280000000    -4.034000000     2.069000000
C    -2.432000000    -3.284000000     2.356000000
H    -2.458000000    -2.705000000     3.275000000
C    -3.383000000    -3.167000000     1.429000000
O    -4.271000000    -2.190000000     1.685000000
C    -3.285000000    -3.797000000     0.197000000
C    -4.330000000    -3.565000000    -0.916000000
H    -4.264000000    -4.450000000    -1.553000000
C    -3.960000000    -2.407000000    -1.824000000
C    -3.266000000    -2.660000000    -2.993000000
H    -2.987000000    -3.660000000    -3.315000000
H    -5.352000000    -3.471000000    -0.545000000
C    -2.110000000    -4.507000000    -0.134000000
H    -1.949000000    -4.869000000    -1.147000000
C    -1.078000000    -4.654000000     0.880000000
C     0.071000000    -5.575000000     0.653000000
H    -0.330000000    -6.425000000     0.097000000
H     0.339000000    -6.017000000     1.615000000
C     1.270000000    -4.852000000     0.043000000
C     1.425000000    -4.701000000    -1.325000000
H     0.659000000    -5.001000000    -2.036000000
C     2.099000000    -4.113000000     0.874000000
C     3.106000000    -3.278000000     0.331000000
H     3.634000000    -2.690000000     1.077000000
C     3.291000000    -3.181000000    -1.054000000
O     4.153000000    -2.205000000    -1.578000000
C     3.586000000    -0.880000000    -1.889000000
C     4.542000000     0.291000000    -1.480000000
C     4.724000000     1.461000000    -2.229000000
H     4.175000000     1.673000000    -3.143000000
C     5.218000000     0.224000000    -0.279000000
H     5.124000000    -0.722000000     0.248000000
O     3.526000000    -0.943000000    -3.331000000
H     2.656000000    -0.653000000    -1.347000000
C     2.440000000    -3.937000000    -1.894000000
C     2.499000000    -3.747000000    -3.401000000
H     2.220000000    -4.747000000    -3.741000000
H     3.559000000    -3.662000000    -3.650000000
C     1.764000000    -2.532000000    -3.851000000
C     0.399000000    -2.651000000    -4.195000000
H    -0.097000000    -3.612000000    -4.298000000
C     2.268000000    -1.234000000    -3.812000000
C     1.452000000    -0.116000000    -4.024000000
H     1.770000000     0.905000000    -3.828000000
C     0.141000000    -0.299000000    -4.417000000
O    -0.475000000     0.859000000    -4.619000000
C    -1.281000000     1.275000000    -3.559000000
C    -1.288000000     2.834000000    -3.470000000
C    -0.009000000     3.524000000    -3.408000000
H     0.930000000     3.009000000    -3.598000000
C    -2.445000000     3.494000000    -3.057000000
H    -3.359000000     2.905000000    -3.036000000
O    -2.626000000     0.882000000    -3.919000000
H    -1.018000000     0.893000000    -2.562000000
C    -0.401000000    -1.570000000    -4.517000000
C    -1.931000000    -1.927000000    -4.885000000
H    -2.070000000    -2.981000000    -5.135000000
H    -2.155000000    -1.369000000    -5.797000000
C    -2.954000000    -1.533000000    -3.819000000
C    -3.198000000    -0.227000000    -3.386000000
C    -4.049000000    -0.098000000    -2.258000000
H    -4.384000000     0.907000000    -2.014000000
C    -4.434000000    -1.145000000    -1.461000000
O    -5.000000000    -0.866000000    -0.203000000
C    -4.160000000    -0.881000000     1.018000000
H    -3.133000000    -0.832000000     0.626000000
C    -4.348000000     0.405000000     1.855000000
C    -3.669000000     0.578000000     3.042000000
H    -3.073000000    -0.261000000     3.392000000
C    -5.030000000     1.481000000     1.344000000
H    -5.506000000     1.332000000     0.378000000
C    -5.037000000     2.686000000     2.013000000
O    -5.530000000     3.790000000     1.408000000
C    -4.255000000     2.881000000     3.147000000
H    -4.198000000     3.855000000     3.626000000
C    -3.582000000     1.833000000     3.700000000
O    -2.929000000     1.976000000     4.879000000
C    -2.728000000     0.951000000     5.774000000
C    -1.426000000     0.514000000     5.936000000
H    -0.658000000     0.862000000     5.251000000
C    -3.688000000     0.581000000     6.694000000
H    -4.689000000     0.988000000     6.808000000
C    -3.375000000    -0.391000000     7.592000000
H    -4.064000000    -0.799000000     8.327000000
C    -2.079000000    -0.928000000     7.803000000
H    -1.967000000    -1.671000000     8.589000000
C    -1.120000000    -0.483000000     6.934000000
O     0.148000000    -1.004000000     7.051000000
C     0.925000000    -1.410000000     6.056000000
C     2.232000000    -1.016000000     6.147000000
H     2.629000000    -0.523000000     7.032000000
C     3.145000000    -1.332000000     5.136000000
O     4.484000000    -1.010000000     5.294000000
C     5.388000000    -0.953000000     4.246000000
C     5.391000000     0.073000000     3.331000000
H     4.653000000     0.871000000     3.346000000
C     6.224000000    -2.017000000     4.086000000
H     6.112000000    -2.893000000     4.719000000
C     7.209000000    -1.996000000     3.133000000
H     7.860000000    -2.844000000     2.938000000
C     7.267000000    -0.890000000     2.198000000
H     8.015000000    -0.759000000     1.421000000
C     6.369000000     0.141000000     2.362000000
O     6.513000000     1.219000000     1.530000000
C     5.988000000     1.263000000     0.236000000
C     6.148000000     2.391000000    -0.560000000
H     6.624000000     3.266000000    -0.125000000
C     5.559000000     2.493000000    -1.830000000
O     5.606000000     3.716000000    -2.486000000
C     4.615000000     4.197000000    -3.389000000
C     3.324000000     4.466000000    -2.913000000
H     3.048000000     4.443000000    -1.862000000
C     5.004000000     4.639000000    -4.710000000
H     6.008000000     4.527000000    -5.112000000
C     4.012000000     5.280000000    -5.539000000
H     4.338000000     5.761000000    -6.458000000
C     2.750000000     5.523000000    -5.011000000
H     2.100000000     6.207000000    -5.550000000
C     2.324000000     5.144000000    -3.743000000
O     1.180000000     5.595000000    -3.194000000
C    -0.020000000     4.915000000    -3.296000000
C    -1.177000000     5.597000000    -3.032000000
H    -1.209000000     6.673000000    -2.883000000
C    -2.361000000     4.856000000    -2.815000000
O    -3.440000000     5.620000000    -2.401000000
C    -4.554000000     5.114000000    -1.826000000
C    -5.696000000     4.818000000    -2.568000000
H    -5.735000000     5.107000000    -3.615000000
C    -6.794000000     4.255000000    -2.005000000
H    -7.739000000     4.168000000    -2.535000000
C    -6.738000000     3.875000000    -0.633000000
H    -7.563000000     3.456000000    -0.061000000
C    -5.556000000     4.098000000     0.088000000
C    -4.465000000     4.665000000    -0.538000000
H    -3.630000000     4.805000000     0.143000000
O     3.933000000     4.281000000     1.156000000
H     3.892000000     3.699000000     1.914000000
H     3.020000000     4.404000000     0.897000000
O     1.301000000     3.300000000     6.510000000
H     1.152000000     3.246000000     5.566000000
H     2.244000000     3.441000000     6.596000000
O    -2.624000000     7.442000000     4.800000000
H    -2.102000000     6.662000000     4.989000000
H    -3.188000000     7.181000000     4.071000000
O     3.379000000     3.602000000     3.895000000
H     3.712000000     3.006000000     4.565000000
H     2.496000000     3.282000000     3.707000000
O     3.120000000     7.079000000    -0.422000000
H     3.902000000     7.121000000     0.127000000
H     2.518000000     6.512000000     0.060000000
O     1.358000000     8.493000000     5.112000000
H     2.092000000     8.416000000     5.722000000
H     1.729000000     8.929000000     4.345000000
O    -1.137000000     3.616000000     7.751000000
H    -1.239000000     2.873000000     8.345000000
H    -0.353000000     3.410000000     7.242000000
O     1.803000000     1.385000000     8.570000000
H     1.354000000     1.875000000     7.881000000
H     1.159000000     1.317000000     9.274000000
O    -4.040000000     7.200000000     2.506000000
H    -4.022000000     7.853000000     1.807000000
H    -4.963000000     7.138000000     2.752000000
O     6.354000000     5.165000000     1.803000000
H     6.356000000     6.000000000     1.335000000
H     5.669000000     4.652000000     1.376000000
O    -2.329000000     5.942000000     8.119000000
H    -3.005000000     5.642000000     7.511000000
H    -1.758000000     5.183000000     8.235000000
O     1.093000000     8.472000000     1.436000000
H     0.771000000     7.735000000     1.956000000
H     1.688000000     8.937000000     2.024000000
O    -1.949000000     5.855000000     1.340000000
H    -1.555000000     5.190000000     1.905000000
H    -2.717000000     6.158000000     1.826000000
O    -1.778000000     8.125000000    -0.039000000
H    -0.933000000     8.281000000    -0.461000000
H    -1.694000000     7.254000000     0.350000000
O     1.377000000     4.992000000     0.896000000
H     0.605000000     4.736000000     0.391000000
H     1.024000000     5.317000000     1.724000000
O     0.664000000     6.539000000     3.330000000
H     0.924000000     7.080000000     4.075000000
H     0.120000000     5.850000000     3.712000000
O    -4.518000000     3.997000000     6.684000000
H    -3.839000000     3.802000000     6.038000000
H    -4.764000000     4.905000000     6.507000000
O    -1.467000000     5.007000000     5.259000000
H    -1.287000000     4.323000000     5.904000000
H    -1.351000000     4.575000000     4.413000000
O     4.836000000     6.052000000     4.020000000
H     4.236000000     5.306000000     4.024000000
H     5.305000000     5.979000000     3.189000000
