201
-1235.56843
C     3.245000000    -1.532000000     3.712000000
H     3.752000000    -1.645000000     2.757000000
C     1.999000000    -2.105000000     3.885000000
C     1.224000000    -1.809000000     5.036000000
H     0.238000000    -2.263000000     5.108000000
C     1.505000000    -3.078000000     2.765000000
O     2.499000000    -3.985000000     2.240000000
H     1.046000000    -2.433000000     2.001000000
O     0.367000000    -3.797000000     3.200000000
C    -0.736000000    -3.860000000     2.413000000
C    -1.847000000    -3.115000000     2.844000000
H    -1.788000000    -2.616000000     3.808000000
C    -2.915000000    -2.978000000     1.979000000
O    -3.852000000    -1.988000000     2.159000000
C    -2.971000000    -3.667000000     0.751000000
C    -4.147000000    -3.597000000    -0.151000000
H    -4.299000000    -4.538000000    -0.683000000
C    -4.056000000    -2.540000000    -1.174000000
C    -3.473000000    -2.825000000    -2.363000000
H    -3.082000000    -3.818000000    -2.571000000
H    -5.029000000    -3.328000000     0.433000000
C    -1.892000000    -4.516000000     0.451000000
H    -1.953000000    -5.213000000    -0.381000000
C    -0.771000000    -4.646000000     1.285000000
C     0.354000000    -5.632000000     0.913000000
H    -0.026000000    -6.387000000     0.221000000
H     0.835000000    -6.090000000     1.780000000
C     1.424000000    -4.837000000     0.214000000
C     1.350000000    -4.703000000    -1.167000000
H     0.587000000    -5.119000000    -1.821000000
C     2.372000000    -4.063000000     0.880000000
C     3.198000000    -3.182000000     0.200000000
H     3.819000000    -2.574000000     0.852000000
C     3.136000000    -3.154000000    -1.158000000
O     3.971000000    -2.304000000    -1.819000000
C     3.453000000    -0.999000000    -2.134000000
C     4.272000000     0.226000000    -1.688000000
C     3.977000000     1.503000000    -2.209000000
H     3.052000000     1.685000000    -2.749000000
C     5.318000000     0.087000000    -0.785000000
H     5.544000000    -0.836000000    -0.255000000
O     3.204000000    -0.943000000    -3.577000000
H     2.471000000    -0.895000000    -1.649000000
C     2.229000000    -3.889000000    -1.901000000
C     2.183000000    -3.745000000    -3.405000000
H     1.822000000    -4.685000000    -3.827000000
H     3.196000000    -3.528000000    -3.749000000
C     1.293000000    -2.525000000    -3.709000000
C    -0.052000000    -2.727000000    -3.877000000
H    -0.410000000    -3.732000000    -3.670000000
C     1.872000000    -1.252000000    -3.889000000
C     0.996000000    -0.206000000    -4.274000000
H     1.379000000     0.787000000    -4.497000000
C    -0.382000000    -0.409000000    -4.505000000
O    -1.200000000     0.666000000    -4.746000000
C    -1.910000000     1.161000000    -3.622000000
C    -2.004000000     2.657000000    -3.540000000
C    -0.898000000     3.416000000    -3.721000000
H     0.010000000     2.907000000    -4.032000000
C    -3.208000000     3.320000000    -3.343000000
H    -4.166000000     2.810000000    -3.394000000
O    -3.224000000     0.600000000    -3.736000000
H    -1.499000000     0.737000000    -2.695000000
C    -0.903000000    -1.705000000    -4.315000000
C    -2.367000000    -2.018000000    -4.531000000
H    -2.482000000    -3.058000000    -4.845000000
H    -2.728000000    -1.482000000    -5.411000000
C    -3.202000000    -1.838000000    -3.343000000
C    -3.570000000    -0.541000000    -2.980000000
C    -4.230000000    -0.244000000    -1.835000000
H    -4.526000000     0.787000000    -1.657000000
C    -4.441000000    -1.251000000    -0.889000000
O    -4.798000000    -0.973000000     0.417000000
C    -3.792000000    -0.888000000     1.339000000
H    -2.865000000    -0.954000000     0.749000000
C    -3.897000000     0.376000000     2.118000000
C    -3.135000000     0.517000000     3.273000000
H    -2.556000000    -0.339000000     3.610000000
C    -4.421000000     1.527000000     1.546000000
H    -4.949000000     1.493000000     0.596000000
C    -4.239000000     2.823000000     2.138000000
O    -4.948000000     3.904000000     1.640000000
C    -3.512000000     2.935000000     3.293000000
H    -3.221000000     3.849000000     3.804000000
C    -2.878000000     1.835000000     3.771000000
O    -2.064000000     1.974000000     4.820000000
C    -1.822000000     0.983000000     5.770000000
C    -0.510000000     0.718000000     6.085000000
H     0.274000000     1.270000000     5.575000000
C    -2.894000000     0.312000000     6.436000000
H    -3.939000000     0.541000000     6.241000000
C    -2.582000000    -0.546000000     7.496000000
H    -3.400000000    -1.049000000     8.005000000
C    -1.270000000    -0.845000000     7.755000000
H    -1.060000000    -1.627000000     8.480000000
C    -0.260000000    -0.234000000     7.034000000
O     1.094000000    -0.618000000     7.197000000
C     1.776000000    -0.928000000     6.020000000
C     3.031000000    -0.458000000     5.899000000
H     3.489000000     0.225000000     6.609000000
C     3.759000000    -0.594000000     4.675000000
O     5.040000000    -0.034000000     4.640000000
C     5.971000000    -0.196000000     3.626000000
C     6.210000000     0.821000000     2.646000000
H     5.623000000     1.734000000     2.599000000
C     6.716000000    -1.333000000     3.659000000
H     6.491000000    -2.033000000     4.460000000
C     7.596000000    -1.666000000     2.585000000
H     7.969000000    -2.685000000     2.522000000
C     7.829000000    -0.660000000     1.584000000
H     8.294000000    -0.979000000     0.655000000
C     7.093000000     0.475000000     1.633000000
O     7.036000000     1.253000000     0.544000000
C     6.050000000     1.225000000    -0.435000000
C     5.811000000     2.477000000    -1.024000000
H     6.321000000     3.353000000    -0.631000000
C     4.744000000     2.611000000    -1.823000000
O     4.393000000     3.853000000    -2.298000000
C     3.641000000     4.141000000    -3.430000000
C     2.436000000     4.763000000    -3.172000000
H     2.325000000     5.113000000    -2.149000000
C     3.931000000     3.824000000    -4.733000000
H     4.873000000     3.313000000    -4.915000000
C     3.070000000     4.216000000    -5.789000000
H     3.310000000     3.887000000    -6.797000000
C     1.876000000     4.840000000    -5.545000000
H     1.258000000     4.972000000    -6.430000000
C     1.544000000     5.141000000    -4.195000000
O     0.331000000     5.602000000    -3.823000000
C    -0.837000000     4.820000000    -3.702000000
C    -2.075000000     5.434000000    -3.518000000
H    -2.097000000     6.518000000    -3.436000000
C    -3.231000000     4.713000000    -3.241000000
O    -4.461000000     5.279000000    -2.943000000
C    -5.206000000     4.767000000    -1.916000000
C    -6.537000000     4.599000000    -2.078000000
H    -6.941000000     4.925000000    -3.033000000
C    -7.383000000     4.153000000    -1.100000000
H    -8.457000000     4.031000000    -1.221000000
C    -6.807000000     3.930000000     0.179000000
H    -7.543000000     3.547000000     0.881000000
C    -5.412000000     4.112000000     0.376000000
C    -4.594000000     4.493000000    -0.706000000
H    -3.517000000     4.550000000    -0.571000000
O     2.188000000     5.785000000     0.681000000
H     1.508000000     6.358000000     1.035000000
H     1.715000000     5.169000000     0.122000000
O     3.430000000     4.288000000     8.191000000
H     3.474000000     5.087000000     7.664000000
H     2.591000000     3.892000000     7.957000000
O    -0.437000000     4.759000000     5.917000000
H    -0.189000000     4.658000000     4.998000000
H     0.093000000     5.493000000     6.229000000
O     0.284000000     7.223000000     6.970000000
H     0.563000000     8.138000000     7.003000000
H    -0.665000000     7.257000000     7.093000000
O     4.514000000     4.387000000     1.956000000
H     3.968000000     4.786000000     1.278000000
H     3.914000000     3.824000000     2.445000000
O     4.677000000     2.881000000     5.073000000
H     3.958000000     2.935000000     4.444000000
H     4.821000000     1.942000000     5.192000000
O     1.530000000     1.328000000     9.225000000
H     1.228000000     0.706000000     8.563000000
H     1.274000000     2.185000000     8.884000000
O     3.376000000     7.906000000    -1.322000000
H     3.802000000     7.088000000    -1.068000000
H     2.439000000     7.718000000    -1.255000000
O     7.040000000     3.860000000     6.262000000
H     7.565000000     3.160000000     5.873000000
H     6.165000000     3.735000000     5.896000000
O    -3.048000000     4.419000000     6.420000000
H    -2.133000000     4.557000000     6.175000000
H    -3.139000000     3.467000000     6.478000000
O     3.146000000     6.622000000     7.251000000
H     3.500000000     6.253000000     6.442000000
H     2.201000000     6.658000000     7.104000000
O    -2.958000000     7.305000000     0.809000000
H    -2.751000000     6.722000000     1.540000000
H    -2.439000000     6.966000000     0.080000000
O     2.829000000     5.887000000     4.586000000
H     3.694000000     6.007000000     4.194000000
H     2.526000000     5.046000000     4.244000000
O     7.209000000     4.086000000     2.387000000
H     7.571000000     4.348000000     1.540000000
H     6.261000000     4.091000000     2.254000000
O     4.350000000     7.647000000     1.890000000
H     5.038000000     7.425000000     1.262000000
H     3.569000000     7.206000000     1.556000000
O     0.782000000     4.013000000    -0.665000000
H     1.074000000     3.139000000    -0.921000000
H    -0.126000000     3.891000000    -0.388000000
O     0.782000000     3.936000000     8.209000000
H     0.280000000     4.432000000     8.856000000
H     0.211000000     3.896000000     7.442000000
O     0.832000000     7.340000000     2.860000000
H     1.152000000     6.497000000     3.181000000
H     1.508000000     7.967000000     3.117000000
O    -1.417000000     5.604000000     2.255000000
H    -0.795000000     4.936000000     2.545000000
H    -0.954000000     6.432000000     2.379000000
