201
-1266.28279
C     3.029000000    -1.697000000     3.754000000
H     3.663000000    -2.278000000     3.089000000
C     1.648000000    -1.941000000     3.659000000
C     0.790000000    -1.122000000     4.455000000
H    -0.286000000    -1.163000000     4.307000000
C     1.109000000    -2.913000000     2.558000000
O     2.214000000    -3.763000000     2.140000000
H     0.788000000    -2.273000000     1.724000000
O     0.070000000    -3.833000000     3.043000000
C    -1.037000000    -4.015000000     2.294000000
C    -2.194000000    -3.283000000     2.566000000
H    -2.239000000    -2.524000000     3.342000000
C    -3.198000000    -3.249000000     1.613000000
O    -4.263000000    -2.456000000     1.892000000
C    -3.108000000    -4.019000000     0.446000000
C    -4.193000000    -3.899000000    -0.612000000
H    -4.151000000    -4.755000000    -1.288000000
C    -4.040000000    -2.659000000    -1.442000000
C    -3.263000000    -2.716000000    -2.600000000
H    -2.850000000    -3.636000000    -3.007000000
H    -5.157000000    -3.721000000    -0.130000000
C    -2.037000000    -4.853000000     0.288000000
H    -2.029000000    -5.502000000    -0.584000000
C    -0.973000000    -4.784000000     1.132000000
C     0.300000000    -5.474000000     0.832000000
H     0.102000000    -6.392000000     0.275000000
H     0.680000000    -5.952000000     1.738000000
C     1.323000000    -4.727000000     0.001000000
C     1.332000000    -4.694000000    -1.409000000
H     0.620000000    -5.323000000    -1.939000000
C     2.246000000    -3.960000000     0.721000000
C     3.229000000    -3.271000000     0.000000000
H     3.995000000    -2.672000000     0.487000000
C     3.145000000    -3.104000000    -1.372000000
O     4.081000000    -2.215000000    -2.014000000
C     3.572000000    -0.921000000    -2.278000000
C     4.526000000     0.258000000    -2.015000000
C     4.461000000     1.496000000    -2.681000000
H     3.802000000     1.565000000    -3.543000000
C     5.402000000     0.161000000    -0.928000000
H     5.357000000    -0.735000000    -0.313000000
O     3.221000000    -0.861000000    -3.656000000
H     2.740000000    -0.649000000    -1.612000000
C     2.221000000    -3.850000000    -2.112000000
C     2.244000000    -3.765000000    -3.619000000
H     1.841000000    -4.644000000    -4.126000000
H     3.229000000    -3.561000000    -4.044000000
C     1.417000000    -2.512000000    -3.991000000
C    -0.006000000    -2.612000000    -4.306000000
H    -0.493000000    -3.574000000    -4.448000000
C     1.924000000    -1.179000000    -3.966000000
C     1.163000000    -0.055000000    -4.308000000
H     1.523000000     0.969000000    -4.357000000
C    -0.223000000    -0.281000000    -4.442000000
O    -0.966000000     0.829000000    -4.597000000
C    -1.753000000     1.346000000    -3.466000000
C    -1.638000000     2.867000000    -3.270000000
C    -0.584000000     3.584000000    -3.837000000
H     0.142000000     3.012000000    -4.410000000
C    -2.513000000     3.650000000    -2.476000000
H    -3.367000000     3.214000000    -1.965000000
O    -3.086000000     0.910000000    -3.528000000
H    -1.321000000     0.917000000    -2.550000000
C    -0.808000000    -1.505000000    -4.414000000
C    -2.273000000    -1.752000000    -4.684000000
H    -2.499000000    -2.655000000    -5.255000000
H    -2.624000000    -0.954000000    -5.341000000
C    -3.018000000    -1.579000000    -3.386000000
C    -3.426000000    -0.305000000    -2.958000000
C    -4.267000000    -0.270000000    -1.807000000
H    -4.503000000     0.677000000    -1.328000000
C    -4.635000000    -1.394000000    -1.065000000
O    -5.289000000    -1.152000000     0.181000000
C    -4.297000000    -1.172000000     1.196000000
H    -3.314000000    -0.936000000     0.762000000
C    -4.538000000    -0.070000000     2.232000000
C    -4.299000000    -0.305000000     3.605000000
H    -3.976000000    -1.267000000     3.994000000
C    -4.709000000     1.246000000     1.802000000
H    -4.792000000     1.473000000     0.742000000
C    -4.738000000     2.318000000     2.724000000
O    -4.744000000     3.627000000     2.412000000
C    -4.795000000     1.955000000     4.096000000
H    -4.833000000     2.839000000     4.727000000
C    -4.527000000     0.672000000     4.487000000
O    -4.377000000     0.435000000     5.808000000
C    -3.169000000     0.078000000     6.369000000
C    -1.986000000     0.514000000     5.766000000
H    -1.954000000     1.127000000     4.868000000
C    -3.121000000    -0.611000000     7.582000000
H    -4.072000000    -0.913000000     8.012000000
C    -1.955000000    -0.900000000     8.279000000
H    -1.970000000    -1.382000000     9.253000000
C    -0.778000000    -0.420000000     7.675000000
H     0.164000000    -0.481000000     8.213000000
C    -0.791000000     0.221000000     6.440000000
O     0.447000000     0.688000000     5.964000000
C     1.341000000    -0.133000000     5.267000000
C     2.707000000     0.140000000     5.195000000
H     3.084000000     0.978000000     5.776000000
C     3.570000000    -0.711000000     4.584000000
O     4.908000000    -0.365000000     4.558000000
C     5.777000000    -0.602000000     3.555000000
C     6.064000000     0.498000000     2.760000000
H     5.571000000     1.443000000     2.973000000
C     6.305000000    -1.898000000     3.325000000
H     6.166000000    -2.706000000     4.039000000
C     7.067000000    -2.039000000     2.189000000
H     7.452000000    -3.017000000     1.913000000
C     7.313000000    -1.009000000     1.290000000
H     7.854000000    -1.014000000     0.348000000
C     6.759000000     0.250000000     1.584000000
O     6.853000000     1.277000000     0.614000000
C     6.225000000     1.215000000    -0.633000000
C     6.103000000     2.444000000    -1.292000000
H     6.755000000     3.246000000    -0.955000000
C     5.238000000     2.593000000    -2.398000000
O     5.125000000     3.881000000    -2.955000000
C     4.167000000     4.142000000    -3.932000000
C     2.918000000     4.584000000    -3.524000000
H     2.802000000     4.787000000    -2.462000000
C     4.416000000     3.927000000    -5.284000000
H     5.431000000     3.628000000    -5.533000000
C     3.389000000     4.069000000    -6.263000000
H     3.670000000     3.799000000    -7.278000000
C     2.131000000     4.618000000    -5.874000000
H     1.304000000     4.744000000    -6.568000000
C     1.879000000     4.813000000    -4.518000000
O     0.775000000     5.514000000    -4.128000000
C    -0.410000000     4.918000000    -3.680000000
C    -1.237000000     5.627000000    -2.777000000
H    -1.096000000     6.689000000    -2.593000000
C    -2.265000000     4.966000000    -2.209000000
O    -3.108000000     5.818000000    -1.525000000
C    -4.209000000     5.382000000    -0.729000000
C    -5.517000000     5.705000000    -1.049000000
H    -5.700000000     6.237000000    -1.979000000
C    -6.590000000     5.195000000    -0.285000000
H    -7.595000000     5.539000000    -0.515000000
C    -6.316000000     4.541000000     0.866000000
H    -7.078000000     4.242000000     1.581000000
C    -4.956000000     4.168000000     1.196000000
C    -3.902000000     4.713000000     0.459000000
H    -2.861000000     4.600000000     0.753000000
O     1.367000000     6.883000000    -0.053000000
H     1.063000000     7.195000000     0.800000000
H     1.040000000     5.985000000    -0.110000000
O     1.418000000     3.308000000     6.647000000
H     1.295000000     3.421000000     5.704000000
H     0.994000000     2.473000000     6.846000000
O    -1.509000000     4.776000000     3.793000000
H    -0.585000000     4.526000000     3.825000000
H    -1.569000000     5.374000000     3.048000000
O    -0.578000000     8.158000000     4.870000000
H    -0.231000000     9.049000000     4.923000000
H     0.176000000     7.622000000     4.622000000
O     4.298000000     5.524000000     1.963000000
H     3.810000000     6.298000000     1.682000000
H     3.640000000     4.962000000     2.372000000
O     4.840000000     3.731000000     4.664000000
H     4.127000000     3.597000000     4.039000000
H     5.331000000     4.473000000     4.312000000
O     6.208000000     6.169000000     4.101000000
H     5.723000000     6.289000000     3.285000000
H     7.105000000     5.984000000     3.822000000
O     6.517000000     1.033000000     6.278000000
H     5.636000000     0.988000000     5.907000000
H     6.376000000     1.124000000     7.220000000
O     1.208000000     5.750000000     8.512000000
H     0.433000000     5.904000000     7.973000000
H     1.635000000     4.996000000     8.107000000
O     3.942000000     7.291000000    -0.718000000
H     3.863000000     8.168000000    -1.092000000
H     3.039000000     6.993000000    -0.611000000
O    -1.374000000     5.799000000     6.490000000
H    -1.422000000     5.211000000     5.737000000
H    -1.043000000     6.622000000     6.130000000
O     7.882000000     3.169000000     2.385000000
H     8.332000000     2.384000000     2.072000000
H     7.093000000     3.223000000     1.847000000
O     6.612000000     5.238000000     0.503000000
H     5.750000000     5.059000000     0.879000000
H     6.468000000     5.980000000    -0.085000000
O     2.050000000     4.053000000     0.130000000
H     2.553000000     3.244000000     0.229000000
H     2.569000000     4.715000000     0.586000000
O     4.140000000     3.493000000     7.156000000
H     4.372000000     3.532000000     6.228000000
H     3.186000000     3.416000000     7.160000000
O     2.682000000     8.216000000     2.398000000
H     2.715000000     7.750000000     3.233000000
H     1.901000000     8.765000000     2.460000000
O     1.205000000     6.485000000     4.128000000
H     0.990000000     5.574000000     3.927000000
H     2.078000000     6.444000000     4.519000000
O    -1.494000000     7.033000000     2.105000000
H    -1.013000000     7.720000000     2.567000000
H    -1.798000000     7.453000000     1.301000000
O     3.502000000     7.156000000     5.198000000
H     4.263000000     6.578000000     5.150000000
H     3.740000000     7.811000000     5.855000000
