201
-1229.08539
C     3.774000000    -2.136000000     3.209000000
H     4.265000000    -2.511000000     2.315000000
C     2.455000000    -2.482000000     3.487000000
C     1.827000000    -1.828000000     4.568000000
H     0.758000000    -1.957000000     4.710000000
C     1.679000000    -3.328000000     2.495000000
O     2.543000000    -4.143000000     1.678000000
H     1.197000000    -2.548000000     1.887000000
O     0.551000000    -4.023000000     3.107000000
C    -0.689000000    -3.883000000     2.446000000
C    -1.669000000    -3.066000000     2.959000000
H    -1.434000000    -2.403000000     3.787000000
C    -2.822000000    -2.798000000     2.217000000
O    -3.572000000    -1.756000000     2.721000000
C    -3.098000000    -3.487000000     1.025000000
C    -4.374000000    -3.266000000     0.259000000
H    -4.556000000    -4.196000000    -0.284000000
C    -4.319000000    -2.071000000    -0.701000000
C    -3.714000000    -2.335000000    -1.932000000
H    -3.549000000    -3.340000000    -2.310000000
H    -5.161000000    -3.113000000     1.000000000
C    -2.151000000    -4.422000000     0.537000000
H    -2.255000000    -4.912000000    -0.428000000
C    -0.916000000    -4.482000000     1.190000000
C     0.085000000    -5.429000000     0.634000000
H    -0.328000000    -6.112000000    -0.111000000
H     0.709000000    -5.962000000     1.355000000
C     1.077000000    -4.662000000    -0.201000000
C     0.884000000    -4.604000000    -1.601000000
H    -0.094000000    -4.891000000    -1.979000000
C     2.233000000    -4.143000000     0.354000000
C     3.169000000    -3.546000000    -0.474000000
H     4.088000000    -3.083000000    -0.122000000
C     2.923000000    -3.342000000    -1.864000000
O     3.704000000    -2.394000000    -2.539000000
C     3.211000000    -1.016000000    -2.675000000
C     4.242000000    -0.012000000    -2.513000000
C     4.132000000     1.222000000    -3.079000000
H     3.359000000     1.449000000    -3.809000000
C     5.311000000    -0.318000000    -1.632000000
H     5.327000000    -1.282000000    -1.130000000
O     2.582000000    -0.790000000    -3.919000000
H     2.502000000    -0.865000000    -1.849000000
C     1.770000000    -3.914000000    -2.408000000
C     1.451000000    -3.590000000    -3.828000000
H     0.813000000    -4.432000000    -4.106000000
H     2.350000000    -3.453000000    -4.432000000
C     0.621000000    -2.331000000    -3.969000000
C    -0.785000000    -2.483000000    -3.998000000
H    -1.320000000    -3.390000000    -3.730000000
C     1.223000000    -1.066000000    -4.174000000
C     0.417000000     0.005000000    -4.478000000
H     0.897000000     0.913000000    -4.835000000
C    -0.974000000    -0.101000000    -4.486000000
O    -1.689000000     1.039000000    -4.520000000
C    -2.353000000     1.396000000    -3.263000000
C    -2.222000000     2.930000000    -2.941000000
C    -0.935000000     3.474000000    -3.080000000
H    -0.167000000     2.840000000    -3.516000000
C    -3.228000000     3.764000000    -2.443000000
H    -4.266000000     3.443000000    -2.450000000
O    -3.720000000     1.115000000    -3.175000000
H    -1.813000000     0.970000000    -2.405000000
C    -1.573000000    -1.374000000    -4.266000000
C    -3.075000000    -1.553000000    -4.228000000
H    -3.331000000    -2.592000000    -4.446000000
H    -3.589000000    -0.952000000    -4.981000000
C    -3.641000000    -1.289000000    -2.881000000
C    -3.892000000     0.005000000    -2.435000000
C    -4.350000000     0.270000000    -1.166000000
H    -4.676000000     1.260000000    -0.858000000
C    -4.544000000    -0.779000000    -0.261000000
O    -4.838000000    -0.612000000     1.008000000
C    -3.697000000    -0.492000000     1.870000000
H    -2.740000000    -0.406000000     1.334000000
C    -3.736000000     0.767000000     2.689000000
C    -2.867000000     0.904000000     3.763000000
H    -2.204000000     0.078000000     4.005000000
C    -4.462000000     1.864000000     2.281000000
H    -5.033000000     1.704000000     1.371000000
C    -4.389000000     3.071000000     2.954000000
O    -5.065000000     4.168000000     2.612000000
C    -3.502000000     3.199000000     4.064000000
H    -3.438000000     4.096000000     4.674000000
C    -2.816000000     2.070000000     4.454000000
O    -1.944000000     2.187000000     5.533000000
C    -1.341000000     1.082000000     6.065000000
C     0.056000000     0.999000000     6.102000000
H     0.687000000     1.662000000     5.515000000
C    -2.045000000     0.172000000     6.834000000
H    -3.131000000     0.213000000     6.878000000
C    -1.478000000    -0.894000000     7.486000000
H    -2.074000000    -1.583000000     8.079000000
C    -0.096000000    -1.111000000     7.322000000
H     0.283000000    -2.005000000     7.812000000
C     0.606000000    -0.185000000     6.669000000
O     1.952000000    -0.483000000     6.535000000
C     2.481000000    -1.048000000     5.430000000
C     3.824000000    -0.855000000     5.232000000
H     4.380000000    -0.330000000     6.004000000
C     4.476000000    -1.397000000     4.159000000
O     5.795000000    -1.006000000     3.904000000
C     6.430000000    -1.235000000     2.685000000
C     6.556000000    -0.207000000     1.784000000
H     6.167000000     0.769000000     2.064000000
C     6.881000000    -2.540000000     2.404000000
H     6.769000000    -3.356000000     3.114000000
C     7.427000000    -2.786000000     1.151000000
H     7.745000000    -3.808000000     0.956000000
C     7.578000000    -1.722000000     0.233000000
H     8.100000000    -1.862000000    -0.710000000
C     7.216000000    -0.446000000     0.583000000
O     7.232000000     0.584000000    -0.264000000
C     6.285000000     0.674000000    -1.299000000
C     6.134000000     1.925000000    -2.033000000
H     6.921000000     2.619000000    -1.751000000
C     5.066000000     2.260000000    -2.776000000
O     4.871000000     3.578000000    -3.148000000
C     3.685000000     3.966000000    -3.793000000
C     2.661000000     4.530000000    -3.002000000
H     2.703000000     4.705000000    -1.930000000
C     3.481000000     3.931000000    -5.165000000
H     4.279000000     3.579000000    -5.815000000
C     2.268000000     4.213000000    -5.835000000
H     2.261000000     4.034000000    -6.907000000
C     1.269000000     4.658000000    -5.078000000
H     0.348000000     4.848000000    -5.622000000
C     1.505000000     4.915000000    -3.701000000
O     0.503000000     5.441000000    -2.805000000
C    -0.687000000     4.840000000    -2.677000000
C    -1.788000000     5.635000000    -2.307000000
H    -1.654000000     6.703000000    -2.158000000
C    -3.057000000     5.091000000    -2.160000000
O    -4.156000000     5.869000000    -1.730000000
C    -5.068000000     5.429000000    -0.841000000
C    -6.325000000     5.084000000    -1.251000000
H    -6.679000000     5.087000000    -2.278000000
C    -7.218000000     4.510000000    -0.307000000
H    -8.211000000     4.223000000    -0.644000000
C    -6.905000000     4.140000000     0.974000000
H    -7.496000000     3.673000000     1.758000000
C    -5.576000000     4.426000000     1.315000000
C    -4.717000000     5.095000000     0.498000000
H    -3.694000000     5.179000000     0.855000000
O     2.080000000     4.392000000     0.254000000
H     1.311000000     3.922000000    -0.067000000
H     1.724000000     5.170000000     0.682000000
O     2.188000000     1.793000000     8.643000000
H     2.080000000     2.406000000     7.916000000
H     1.364000000     1.307000000     8.671000000
O     2.615000000     8.359000000     3.670000000
H     3.113000000     8.781000000     4.369000000
H     2.043000000     9.049000000     3.333000000
O    -0.134000000     4.151000000     8.030000000
H     0.106000000     4.945000000     8.507000000
H    -0.712000000     3.678000000     8.629000000
O     2.083000000     3.448000000     6.717000000
H     1.814000000     3.493000000     5.800000000
H     1.316000000     3.748000000     7.207000000
O     3.132000000     6.211000000     7.854000000
H     2.319000000     5.980000000     8.302000000
H     2.946000000     6.058000000     6.927000000
O    -2.461000000     6.598000000     2.541000000
H    -2.818000000     6.632000000     3.429000000
H    -1.744000000     5.967000000     2.595000000
O     4.594000000     3.496000000     3.598000000
H     3.652000000     3.668000000     3.621000000
H     4.792000000     3.373000000     2.670000000
O     4.050000000     6.619000000    -0.437000000
H     3.579000000     5.874000000    -0.066000000
H     3.396000000     7.079000000    -0.963000000
O    -3.488000000     6.571000000     5.205000000
H    -3.971000000     6.118000000     5.896000000
H    -2.569000000     6.380000000     5.391000000
O    -1.294000000     9.070000000     4.259000000
H    -1.480000000    10.007000000     4.206000000
H    -1.158000000     8.800000000     3.351000000
O     2.548000000     5.959000000     5.192000000
H     1.848000000     5.401000000     4.853000000
H     2.542000000     6.726000000     4.620000000
O     4.645000000     3.524000000     0.919000000
H     5.019000000     3.571000000     0.040000000
H     3.788000000     3.943000000     0.837000000
O    -0.795000000     8.249000000     6.725000000
H    -1.019000000     8.545000000     5.843000000
H    -0.990000000     7.312000000     6.719000000
O    -1.037000000     5.604000000     5.873000000
H    -0.833000000     4.877000000     6.461000000
H    -0.683000000     5.333000000     5.026000000
O    -3.548000000     7.957000000     0.291000000
H    -4.175000000     7.742000000    -0.400000000
H    -3.704000000     7.300000000     0.969000000
O    -0.813000000     8.697000000     1.448000000
H    -1.703000000     8.370000000     1.317000000
H    -0.260000000     7.918000000     1.393000000
O     4.758000000     3.447000000     6.254000000
H     4.781000000     3.485000000     5.298000000
H     3.834000000     3.560000000     6.477000000
O     1.121000000     6.595000000     1.655000000
H     0.630000000     6.117000000     2.323000000
H     1.715000000     7.158000000     2.152000000
