201
-1220.04925
C     3.266000000    -2.083000000     3.762000000
H     3.672000000    -3.038000000     3.436000000
C     1.969000000    -1.672000000     3.725000000
C     1.650000000    -0.405000000     4.108000000
H     0.621000000    -0.134000000     3.886000000
C     0.928000000    -2.646000000     3.072000000
O     1.474000000    -3.904000000     2.662000000
H     0.508000000    -2.161000000     2.179000000
O    -0.225000000    -2.790000000     3.872000000
C    -1.437000000    -2.733000000     3.268000000
C    -2.211000000    -1.614000000     3.599000000
H    -1.850000000    -0.794000000     4.214000000
C    -3.528000000    -1.462000000     3.070000000
O    -4.058000000    -0.188000000     3.182000000
C    -3.966000000    -2.421000000     2.118000000
C    -5.149000000    -2.096000000     1.206000000
H    -5.607000000    -3.019000000     0.844000000
C    -4.657000000    -1.319000000    -0.022000000
C    -4.367000000    -1.928000000    -1.270000000
H    -4.530000000    -3.001000000    -1.339000000
H    -5.900000000    -1.407000000     1.596000000
C    -3.205000000    -3.503000000     1.810000000
H    -3.667000000    -4.359000000     1.324000000
C    -1.925000000    -3.670000000     2.331000000
C    -1.120000000    -4.965000000     2.041000000
H    -1.861000000    -5.650000000     1.624000000
H    -0.737000000    -5.570000000     2.865000000
C    -0.087000000    -4.661000000     0.949000000
C    -0.383000000    -4.983000000    -0.384000000
H    -1.368000000    -5.256000000    -0.752000000
C     1.247000000    -4.265000000     1.312000000
C     2.200000000    -4.082000000     0.294000000
H     3.212000000    -3.845000000     0.611000000
C     1.926000000    -4.297000000    -1.059000000
O     2.854000000    -3.805000000    -1.959000000
C     2.554000000    -2.529000000    -2.519000000
C     3.734000000    -1.588000000    -2.497000000
C     3.844000000    -0.483000000    -3.406000000
H     3.024000000    -0.268000000    -4.085000000
C     4.663000000    -1.748000000    -1.464000000
H     4.521000000    -2.522000000    -0.714000000
O     1.992000000    -2.630000000    -3.789000000
H     1.782000000    -2.152000000    -1.833000000
C     0.596000000    -4.685000000    -1.355000000
C     0.290000000    -4.926000000    -2.781000000
H    -0.482000000    -5.659000000    -3.026000000
H     1.090000000    -5.487000000    -3.270000000
C    -0.194000000    -3.688000000    -3.434000000
C    -1.536000000    -3.449000000    -3.401000000
H    -2.200000000    -4.258000000    -3.109000000
C     0.653000000    -2.638000000    -3.962000000
C     0.126000000    -1.468000000    -4.502000000
H     0.797000000    -0.650000000    -4.752000000
C    -1.219000000    -1.212000000    -4.347000000
O    -1.561000000     0.102000000    -4.625000000
C    -2.023000000     0.936000000    -3.558000000
C    -1.615000000     2.405000000    -3.703000000
C    -0.481000000     2.675000000    -4.466000000
H     0.069000000     1.909000000    -5.009000000
C    -2.131000000     3.497000000    -2.986000000
H    -2.904000000     3.300000000    -2.248000000
O    -3.430000000     0.858000000    -3.350000000
H    -1.505000000     0.547000000    -2.669000000
C    -2.134000000    -2.227000000    -3.861000000
C    -3.630000000    -1.932000000    -3.753000000
H    -4.143000000    -2.889000000    -3.634000000
H    -3.977000000    -1.322000000    -4.589000000
C    -3.897000000    -1.262000000    -2.363000000
C    -3.795000000     0.141000000    -2.231000000
C    -4.066000000     0.847000000    -1.036000000
H    -4.018000000     1.933000000    -1.038000000
C    -4.491000000     0.065000000     0.053000000
O    -4.670000000     0.641000000     1.258000000
C    -3.586000000     0.721000000     2.197000000
H    -2.636000000     0.396000000     1.748000000
C    -3.510000000     2.074000000     2.777000000
C    -2.783000000     2.184000000     3.945000000
H    -2.372000000     1.310000000     4.445000000
C    -4.105000000     3.151000000     2.181000000
H    -4.684000000     3.073000000     1.264000000
C    -3.849000000     4.384000000     2.647000000
O    -4.369000000     5.473000000     1.973000000
C    -3.214000000     4.529000000     3.804000000
H    -2.946000000     5.541000000     4.095000000
C    -2.725000000     3.397000000     4.542000000
O    -2.037000000     3.610000000     5.764000000
C    -0.964000000     2.896000000     6.206000000
C     0.157000000     2.766000000     5.375000000
H     0.153000000     3.251000000     4.403000000
C    -1.027000000     2.424000000     7.430000000
H    -1.925000000     2.554000000     8.030000000
C    -0.016000000     1.686000000     8.021000000
H     0.049000000     1.278000000     9.027000000
C     1.101000000     1.537000000     7.185000000
H     1.924000000     0.894000000     7.487000000
C     1.197000000     2.016000000     5.865000000
O     2.311000000     1.690000000     5.122000000
C     2.621000000     0.474000000     4.573000000
C     3.977000000     0.089000000     4.494000000
H     4.709000000     0.824000000     4.820000000
C     4.305000000    -1.218000000     4.042000000
O     5.619000000    -1.642000000     4.004000000
C     6.239000000    -2.136000000     2.868000000
C     6.111000000    -1.458000000     1.660000000
H     5.567000000    -0.520000000     1.574000000
C     6.945000000    -3.320000000     2.967000000
H     6.927000000    -3.902000000     3.885000000
C     7.474000000    -3.919000000     1.785000000
H     7.953000000    -4.890000000     1.883000000
C     7.594000000    -3.168000000     0.626000000
H     8.120000000    -3.579000000    -0.233000000
C     6.890000000    -1.935000000     0.572000000
O     6.855000000    -1.128000000    -0.584000000
C     5.789000000    -0.904000000    -1.415000000
C     5.783000000     0.225000000    -2.252000000
H     6.549000000     0.982000000    -2.099000000
C     4.765000000     0.498000000    -3.189000000
O     4.825000000     1.660000000    -3.827000000
C     3.962000000     2.025000000    -4.802000000
C     2.968000000     2.903000000    -4.504000000
H     2.872000000     3.369000000    -3.527000000
C     4.047000000     1.400000000    -6.031000000
H     4.870000000     0.693000000    -6.102000000
C     3.180000000     1.726000000    -7.068000000
H     3.196000000     1.150000000    -7.989000000
C     2.233000000     2.695000000    -6.777000000
H     1.592000000     2.935000000    -7.620000000
C     2.128000000     3.341000000    -5.495000000
O     1.162000000     4.317000000    -5.237000000
C    -0.017000000     4.007000000    -4.539000000
C    -0.602000000     5.055000000    -3.888000000
H    -0.161000000     6.032000000    -4.063000000
C    -1.681000000     4.838000000    -3.053000000
O    -2.079000000     5.752000000    -2.169000000
C    -3.321000000     5.687000000    -1.529000000
C    -4.465000000     6.075000000    -2.144000000
H    -4.424000000     6.283000000    -3.210000000
C    -5.650000000     6.253000000    -1.378000000
H    -6.503000000     6.623000000    -1.940000000
C    -5.657000000     6.028000000    -0.011000000
H    -6.591000000     6.192000000     0.521000000
C    -4.458000000     5.624000000     0.576000000
C    -3.338000000     5.437000000    -0.177000000
H    -2.410000000     5.276000000     0.366000000
O     8.281000000     4.564000000    -2.671000000
H     8.323000000     4.620000000    -1.716000000
H     8.803000000     5.306000000    -2.977000000
O     3.431000000     7.029000000     0.604000000
H     2.960000000     6.232000000     0.362000000
H     3.901000000     6.797000000     1.405000000
O    -0.860000000     8.368000000    -0.457000000
H    -0.777000000     8.664000000     0.450000000
H    -0.100000000     7.802000000    -0.595000000
O     1.700000000     9.606000000     1.773000000
H     2.453000000     9.294000000     1.271000000
H     1.691000000    10.552000000     1.627000000
O     5.792000000     6.449000000     2.538000000
H     5.804000000     6.540000000     3.491000000
H     5.720000000     7.347000000     2.212000000
O     3.211000000     4.201000000     6.150000000
H     2.933000000     3.610000000     5.451000000
H     4.091000000     4.478000000     5.894000000
O     5.857000000     3.627000000     2.329000000
H     5.860000000     4.583000000     2.283000000
H     5.109000000     3.363000000     1.792000000
O     2.309000000     8.013000000    -2.903000000
H     1.747000000     7.462000000    -2.359000000
H     2.312000000     8.863000000    -2.461000000
O     7.888000000     4.566000000     0.106000000
H     7.878000000     3.746000000     0.600000000
H     6.976000000     4.856000000     0.105000000
O    -0.636000000     8.526000000     2.120000000
H    -0.425000000     7.599000000     2.008000000
H     0.212000000     8.951000000     2.247000000
O     5.287000000     5.105000000    -0.756000000
H     4.678000000     5.811000000    -0.540000000
H     4.817000000     4.304000000    -0.524000000
O     7.727000000     1.750000000     3.308000000
H     7.716000000     1.955000000     4.243000000
H     7.162000000     2.413000000     2.911000000
O     0.432000000     6.008000000     1.604000000
H     1.111000000     5.408000000     1.296000000
H     0.522000000     6.003000000     2.557000000
O    -0.145000000     6.577000000     4.493000000
H     0.307000000     7.056000000     5.187000000
H    -1.070000000     6.793000000     4.616000000
O     3.771000000     6.652000000    -5.280000000
H     3.331000000     7.439000000    -5.600000000
H     3.832000000     6.780000000    -4.333000000
O     0.643000000     6.347000000    -1.445000000
H     1.186000000     5.625000000    -1.129000000
H    -0.222000000     5.958000000    -1.576000000
O     5.859000000     4.421000000     5.088000000
H     5.703000000     4.146000000     4.185000000
H     6.323000000     3.685000000     5.486000000
O     2.568000000     6.319000000     4.294000000
H     2.603000000     6.907000000     3.539000000
H     1.642000000     6.296000000     4.536000000
O     6.052000000     5.719000000    -3.629000000
H     6.687000000     5.047000000    -3.382000000
H     5.534000000     5.861000000    -2.836000000
