201
-1266.58486
C     2.055000000    -2.212000000     4.536000000
H     2.735000000    -2.819000000     3.941000000
C     0.691000000    -2.162000000     4.381000000
C    -0.045000000    -1.303000000     5.151000000
H    -1.103000000    -1.191000000     4.930000000
C    -0.113000000    -2.936000000     3.337000000
O     0.622000000    -4.133000000     2.874000000
H    -0.190000000    -2.337000000     2.417000000
O    -1.457000000    -3.340000000     3.678000000
C    -2.469000000    -3.021000000     2.780000000
C    -3.172000000    -1.825000000     2.958000000
H    -3.044000000    -1.154000000     3.804000000
C    -4.011000000    -1.410000000     1.933000000
O    -4.529000000    -0.149000000     1.961000000
C    -4.237000000    -2.221000000     0.778000000
C    -5.144000000    -1.768000000    -0.359000000
H    -5.480000000    -2.657000000    -0.898000000
C    -4.499000000    -0.968000000    -1.440000000
C    -3.948000000    -1.562000000    -2.609000000
H    -3.935000000    -2.642000000    -2.736000000
H    -5.981000000    -1.221000000     0.079000000
C    -3.625000000    -3.509000000     0.725000000
H    -3.739000000    -4.204000000    -0.103000000
C    -2.732000000    -3.834000000     1.690000000
C    -1.866000000    -5.079000000     1.433000000
H    -2.416000000    -5.791000000     0.814000000
H    -1.756000000    -5.570000000     2.403000000
C    -0.498000000    -4.826000000     0.803000000
C    -0.403000000    -4.902000000    -0.628000000
H    -1.288000000    -5.215000000    -1.176000000
C     0.624000000    -4.486000000     1.545000000
C     1.743000000    -4.101000000     0.888000000
H     2.606000000    -3.819000000     1.486000000
C     1.850000000    -4.157000000    -0.486000000
O     3.015000000    -3.768000000    -1.109000000
C     3.024000000    -2.494000000    -1.796000000
C     4.266000000    -1.649000000    -1.455000000
C     4.740000000    -0.710000000    -2.339000000
H     4.449000000    -0.681000000    -3.386000000
C     4.806000000    -1.623000000    -0.147000000
H     4.403000000    -2.247000000     0.646000000
O     2.804000000    -2.576000000    -3.221000000
H     2.256000000    -1.899000000    -1.281000000
C     0.778000000    -4.561000000    -1.290000000
C     0.886000000    -4.607000000    -2.808000000
H     0.184000000    -5.378000000    -3.134000000
H     1.865000000    -5.055000000    -2.992000000
C     0.563000000    -3.280000000    -3.431000000
C    -0.747000000    -2.997000000    -3.808000000
H    -1.504000000    -3.755000000    -3.622000000
C     1.599000000    -2.361000000    -3.802000000
C     1.336000000    -1.082000000    -4.317000000
H     2.082000000    -0.296000000    -4.408000000
C    -0.028000000    -0.828000000    -4.620000000
O    -0.309000000     0.465000000    -4.905000000
C    -0.777000000     1.325000000    -3.900000000
C    -0.062000000     2.643000000    -3.895000000
C     1.231000000     2.646000000    -4.304000000
H     1.758000000     1.729000000    -4.555000000
C    -0.754000000     3.739000000    -3.369000000
H    -1.725000000     3.657000000    -2.888000000
O    -2.278000000     1.367000000    -4.082000000
H    -0.569000000     0.823000000    -2.944000000
C    -1.000000000    -1.759000000    -4.426000000
C    -2.472000000    -1.439000000    -4.710000000
H    -3.071000000    -2.311000000    -4.986000000
H    -2.555000000    -0.759000000    -5.560000000
C    -3.146000000    -0.773000000    -3.505000000
C    -3.052000000     0.622000000    -3.289000000
C    -3.706000000     1.206000000    -2.238000000
H    -3.630000000     2.279000000    -2.079000000
C    -4.347000000     0.410000000    -1.281000000
O    -4.799000000     1.021000000    -0.160000000
C    -3.952000000     0.826000000     1.094000000
H    -2.912000000     0.616000000     0.803000000
C    -3.804000000     2.213000000     1.671000000
C    -3.511000000     2.309000000     3.017000000
H    -3.510000000     1.419000000     3.641000000
C    -3.833000000     3.436000000     0.944000000
H    -3.874000000     3.366000000    -0.140000000
C    -3.535000000     4.662000000     1.553000000
O    -3.666000000     5.809000000     0.804000000
C    -3.248000000     4.651000000     2.947000000
H    -3.115000000     5.604000000     3.454000000
C    -3.235000000     3.498000000     3.644000000
O    -2.985000000     3.567000000     5.026000000
C    -2.889000000     2.407000000     5.872000000
C    -1.566000000     1.924000000     6.036000000
H    -0.752000000     2.299000000     5.422000000
C    -3.972000000     1.790000000     6.520000000
H    -5.006000000     2.052000000     6.311000000
C    -3.768000000     0.710000000     7.358000000
H    -4.598000000     0.152000000     7.785000000
C    -2.469000000     0.145000000     7.426000000
H    -2.223000000    -0.779000000     7.944000000
C    -1.365000000     0.828000000     6.806000000
O    -0.083000000     0.296000000     6.982000000
C     0.580000000    -0.598000000     6.159000000
C     1.908000000    -0.596000000     6.363000000
H     2.393000000     0.026000000     7.111000000
C     2.698000000    -1.363000000     5.457000000
O     4.102000000    -1.413000000     5.715000000
C     4.909000000    -1.941000000     4.692000000
C     5.269000000    -1.102000000     3.638000000
H     4.915000000    -0.073000000     3.637000000
C     5.136000000    -3.345000000     4.577000000
H     4.698000000    -3.998000000     5.326000000
C     5.800000000    -3.811000000     3.446000000
H     5.931000000    -4.886000000     3.337000000
C     6.285000000    -2.944000000     2.493000000
H     6.909000000    -3.253000000     1.658000000
C     5.911000000    -1.582000000     2.477000000
O     6.266000000    -0.691000000     1.512000000
C     5.802000000    -0.765000000     0.200000000
C     6.317000000     0.139000000    -0.651000000
H     6.954000000     0.922000000    -0.249000000
C     5.745000000     0.200000000    -1.918000000
O     6.134000000     1.293000000    -2.702000000
C     5.547000000     1.607000000    -3.825000000
C     4.570000000     2.588000000    -3.815000000
H     4.253000000     3.020000000    -2.868000000
C     5.829000000     0.965000000    -5.020000000
H     6.576000000     0.177000000    -5.077000000
C     5.228000000     1.322000000    -6.217000000
H     5.490000000     0.870000000    -7.170000000
C     4.336000000     2.363000000    -6.154000000
H     3.816000000     2.825000000    -6.990000000
C     3.955000000     2.989000000    -4.982000000
O     3.102000000     4.090000000    -4.994000000
C     1.830000000     3.921000000    -4.418000000
C     1.131000000     5.058000000    -4.114000000
H     1.671000000     5.988000000    -4.282000000
C    -0.109000000     4.988000000    -3.526000000
O    -0.666000000     6.134000000    -2.937000000
C    -1.939000000     6.180000000    -2.417000000
C    -2.992000000     6.657000000    -3.197000000
H    -2.844000000     6.726000000    -4.272000000
C    -4.214000000     6.971000000    -2.695000000
H    -4.983000000     7.284000000    -3.396000000
C    -4.483000000     6.596000000    -1.358000000
H    -5.485000000     6.726000000    -0.958000000
C    -3.494000000     5.974000000    -0.571000000
C    -2.205000000     5.846000000    -1.098000000
H    -1.430000000     5.584000000    -0.382000000
O     3.149000000     2.221000000     5.931000000
H     2.793000000     2.542000000     5.102000000
H     4.075000000     2.464000000     5.904000000
O     1.549000000     6.250000000     0.078000000
H     1.563000000     5.857000000     0.951000000
H     0.914000000     6.963000000     0.147000000
O    -1.113000000     6.558000000     6.645000000
H    -0.567000000     5.854000000     6.293000000
H    -1.517000000     6.181000000     7.426000000
O     0.867000000     4.881000000     5.771000000
H     1.031000000     4.358000000     6.555000000
H     1.163000000     4.328000000     5.048000000
O     4.763000000     2.861000000     3.470000000
H     3.853000000     3.138000000     3.370000000
H     5.120000000     3.445000000     4.139000000
O    -0.677000000     8.516000000     0.007000000
H    -1.629000000     8.568000000    -0.076000000
H    -0.534000000     8.029000000     0.819000000
O     7.026000000     5.123000000     1.544000000
H     6.348000000     4.447000000     1.557000000
H     7.623000000     4.849000000     0.848000000
O    -1.883000000     7.775000000     4.248000000
H    -1.946000000     8.728000000     4.200000000
H    -1.711000000     7.592000000     5.171000000
O     2.488000000     2.678000000    -1.103000000
H     1.926000000     3.408000000    -1.360000000
H     1.990000000     1.896000000    -1.341000000
O     2.979000000     6.519000000     3.734000000
H     2.480000000     7.274000000     3.422000000
H     2.423000000     5.766000000     3.536000000
O     4.029000000     5.709000000    -1.398000000
H     4.216000000     4.946000000    -0.852000000
H     3.225000000     6.076000000    -1.028000000
O    -0.315000000     7.304000000     2.363000000
H    -1.068000000     7.331000000     2.953000000
H     0.103000000     6.463000000     2.546000000
O     2.248000000     9.027000000     2.542000000
H     1.427000000     8.633000000     2.248000000
H     1.984000000     9.842000000     2.968000000
O     1.644000000     2.989000000     8.046000000
H     2.261000000     2.683000000     7.381000000
H     1.551000000     2.248000000     8.644000000
O     0.693000000     8.356000000     5.722000000
H    -0.175000000     7.988000000     5.890000000
H     1.215000000     7.612000000     5.422000000
O     7.252000000     1.865000000     2.730000000
H     7.285000000     1.014000000     2.293000000
H     6.386000000     2.212000000     2.516000000
O     5.133000000     5.008000000     5.137000000
H     5.926000000     5.528000000     5.006000000
H     4.446000000     5.503000000     4.689000000
O     4.863000000     3.021000000     0.334000000
H     4.631000000     2.586000000     1.155000000
H     4.271000000     2.640000000    -0.314000000
O     5.480000000     7.210000000     1.812000000
H     4.638000000     7.026000000     2.227000000
H     5.990000000     6.410000000     1.937000000
