201
-1261.95793
C     2.609000000    -2.564000000     3.975000000
H     2.953000000    -3.280000000     3.233000000
C     1.247000000    -2.388000000     4.212000000
C     0.850000000    -1.332000000     5.139000000
H    -0.217000000    -1.210000000     5.307000000
C     0.237000000    -2.988000000     3.283000000
O     0.735000000    -4.205000000     2.640000000
H    -0.009000000    -2.275000000     2.482000000
O    -1.015000000    -3.266000000     3.888000000
C    -2.115000000    -2.840000000     3.102000000
C    -2.639000000    -1.539000000     3.224000000
H    -2.257000000    -0.821000000     3.946000000
C    -3.711000000    -1.152000000     2.467000000
O    -4.116000000     0.203000000     2.628000000
C    -4.218000000    -2.016000000     1.496000000
C    -5.435000000    -1.555000000     0.682000000
H    -5.858000000    -2.437000000     0.198000000
C    -4.864000000    -0.623000000    -0.441000000
C    -4.548000000    -1.233000000    -1.634000000
H    -4.602000000    -2.317000000    -1.699000000
H    -6.217000000    -1.129000000     1.314000000
C    -3.701000000    -3.303000000     1.348000000
H    -4.082000000    -3.958000000     0.568000000
C    -2.608000000    -3.688000000     2.064000000
C    -1.937000000    -5.081000000     1.728000000
H    -2.667000000    -5.763000000     1.287000000
H    -1.669000000    -5.519000000     2.691000000
C    -0.739000000    -4.919000000     0.837000000
C    -0.925000000    -5.097000000    -0.562000000
H    -1.914000000    -5.370000000    -0.922000000
C     0.506000000    -4.505000000     1.324000000
C     1.597000000    -4.366000000     0.439000000
H     2.554000000    -3.983000000     0.784000000
C     1.437000000    -4.486000000    -0.932000000
O     2.448000000    -4.006000000    -1.761000000
C     2.420000000    -2.652000000    -2.226000000
C     3.743000000    -1.896000000    -2.139000000
C     3.901000000    -0.786000000    -2.884000000
H     3.123000000    -0.391000000    -3.533000000
C     4.710000000    -2.209000000    -1.205000000
H     4.491000000    -3.149000000    -0.706000000
O     1.816000000    -2.677000000    -3.608000000
H     1.658000000    -2.084000000    -1.672000000
C     0.143000000    -4.826000000    -1.455000000
C    -0.091000000    -4.752000000    -3.003000000
H    -0.783000000    -5.504000000    -3.386000000
H     0.874000000    -4.939000000    -3.478000000
C    -0.533000000    -3.380000000    -3.417000000
C    -1.882000000    -2.994000000    -3.481000000
H    -2.585000000    -3.780000000    -3.220000000
C     0.429000000    -2.439000000    -3.744000000
C     0.049000000    -1.266000000    -4.413000000
H     0.861000000    -0.616000000    -4.729000000
C    -1.277000000    -0.861000000    -4.433000000
O    -1.540000000     0.364000000    -4.830000000
C    -1.753000000     1.297000000    -3.702000000
C    -0.934000000     2.573000000    -3.854000000
C     0.141000000     2.638000000    -4.703000000
H     0.427000000     1.730000000    -5.229000000
C    -1.270000000     3.726000000    -3.156000000
H    -2.203000000     3.797000000    -2.603000000
O    -3.176000000     1.659000000    -3.536000000
H    -1.568000000     0.800000000    -2.738000000
C    -2.272000000    -1.761000000    -4.042000000
C    -3.682000000    -1.334000000    -3.952000000
H    -4.268000000    -2.252000000    -3.871000000
H    -4.060000000    -0.823000000    -4.840000000
C    -3.987000000    -0.531000000    -2.718000000
C    -3.872000000     0.876000000    -2.602000000
C    -4.311000000     1.548000000    -1.459000000
H    -4.268000000     2.631000000    -1.377000000
C    -4.711000000     0.760000000    -0.359000000
O    -4.784000000     1.422000000     0.802000000
C    -3.678000000     1.231000000     1.710000000
H    -2.772000000     0.973000000     1.141000000
C    -3.204000000     2.493000000     2.410000000
C    -2.648000000     2.479000000     3.680000000
H    -2.675000000     1.563000000     4.265000000
C    -3.216000000     3.695000000     1.761000000
H    -3.662000000     3.705000000     0.770000000
C    -2.786000000     4.860000000     2.337000000
O    -3.001000000     6.119000000     1.766000000
C    -2.199000000     4.828000000     3.583000000
H    -1.858000000     5.712000000     4.115000000
C    -2.138000000     3.585000000     4.240000000
O    -1.677000000     3.657000000     5.532000000
C    -1.349000000     2.558000000     6.301000000
C    -0.112000000     1.925000000     6.025000000
H     0.612000000     2.360000000     5.342000000
C    -2.307000000     1.942000000     7.185000000
H    -3.295000000     2.394000000     7.213000000
C    -1.909000000     0.801000000     7.875000000
H    -2.576000000     0.346000000     8.603000000
C    -0.668000000     0.248000000     7.718000000
H    -0.498000000    -0.752000000     8.110000000
C     0.255000000     0.824000000     6.783000000
O     1.508000000     0.450000000     6.629000000
C     1.831000000    -0.594000000     5.795000000
C     3.233000000    -0.757000000     5.482000000
H     3.959000000    -0.119000000     5.979000000
C     3.616000000    -1.767000000     4.554000000
O     4.941000000    -1.708000000     4.079000000
C     5.500000000    -2.446000000     3.139000000
C     5.779000000    -1.798000000     1.912000000
H     5.307000000    -0.839000000     1.712000000
C     5.967000000    -3.756000000     3.368000000
H     5.776000000    -4.192000000     4.346000000
C     6.792000000    -4.382000000     2.517000000
H     7.164000000    -5.386000000     2.706000000
C     7.057000000    -3.746000000     1.330000000
H     7.736000000    -4.277000000     0.667000000
C     6.507000000    -2.534000000     0.971000000
O     6.845000000    -1.906000000    -0.172000000
C     5.886000000    -1.494000000    -1.029000000
C     6.090000000    -0.412000000    -1.915000000
H     7.023000000     0.134000000    -1.798000000
C     5.110000000    -0.035000000    -2.753000000
O     5.265000000     1.087000000    -3.572000000
C     4.542000000     1.488000000    -4.637000000
C     3.426000000     2.365000000    -4.542000000
H     2.855000000     2.531000000    -3.632000000
C     5.182000000     1.420000000    -5.870000000
H     6.073000000     0.814000000    -6.014000000
C     4.626000000     1.941000000    -6.994000000
H     5.088000000     1.751000000    -7.960000000
C     3.541000000     2.798000000    -6.923000000
H     3.070000000     3.354000000    -7.730000000
C     2.992000000     3.015000000    -5.669000000
O     1.908000000     3.859000000    -5.696000000
C     0.859000000     3.819000000    -4.802000000
C     0.584000000     4.984000000    -4.076000000
H     1.265000000     5.831000000    -4.118000000
C    -0.490000000     4.939000000    -3.247000000
O    -0.792000000     6.070000000    -2.597000000
C    -1.895000000     6.325000000    -1.839000000
C    -2.908000000     7.159000000    -2.357000000
H    -2.923000000     7.552000000    -3.371000000
C    -3.904000000     7.492000000    -1.475000000
H    -4.676000000     8.132000000    -1.895000000
C    -3.869000000     7.173000000    -0.089000000
H    -4.559000000     7.531000000     0.671000000
C    -2.864000000     6.371000000     0.407000000
C    -1.826000000     5.939000000    -0.492000000
H    -0.984000000     5.304000000    -0.229000000
O     2.629000000     8.362000000     4.724000000
H     3.254000000     8.706000000     5.362000000
H     3.014000000     7.535000000     4.433000000
O     7.908000000     4.840000000     1.319000000
H     7.535000000     4.122000000     1.831000000
H     7.161000000     5.218000000     0.857000000
O     5.753000000     1.020000000     3.869000000
H     5.382000000     0.140000000     3.941000000
H     6.688000000     0.874000000     3.726000000
O     0.726000000     6.884000000     2.528000000
H     0.170000000     7.218000000     3.232000000
H     0.649000000     5.933000000     2.592000000
O     1.400000000     5.257000000     5.413000000
H     0.514000000     5.588000000     5.560000000
H     1.411000000     5.005000000     4.489000000
O     5.584000000     2.760000000     1.642000000
H     4.858000000     3.363000000     1.804000000
H     5.567000000     2.159000000     2.387000000
O     5.424000000     3.365000000    -0.924000000
H     4.468000000     3.396000000    -0.894000000
H     5.680000000     3.002000000    -0.076000000
O     2.561000000     6.701000000     0.383000000
H     2.067000000     6.768000000    -0.434000000
H     1.973000000     7.059000000     1.048000000
O     5.550000000     7.299000000     4.911000000
H     6.036000000     6.475000000     4.905000000
H     5.150000000     7.348000000     4.042000000
O     2.496000000     3.071000000    -0.945000000
H     2.416000000     2.878000000    -0.011000000
H     2.531000000     2.212000000    -1.365000000
O     3.504000000     5.434000000     6.993000000
H     4.198000000     4.920000000     6.579000000
H     2.761000000     5.359000000     6.394000000
O     0.268000000     7.955000000     5.580000000
H     0.683000000     8.000000000     6.441000000
H     0.998000000     7.992000000     4.961000000
O     2.718000000     3.505000000     8.773000000
H     1.778000000     3.513000000     8.954000000
H     2.889000000     4.350000000     8.357000000
O    -0.013000000     9.586000000     1.665000000
H    -0.876000000     9.289000000     1.377000000
H     0.603000000     9.028000000     1.190000000
O     6.681000000     4.711000000     4.729000000
H     5.817000000     4.328000000     4.876000000
H     7.283000000     4.130000000     5.194000000
O     4.465000000     2.972000000     5.170000000
H     5.133000000     2.347000000     4.887000000
H     3.938000000     3.130000000     4.387000000
O     5.420000000     6.246000000     0.271000000
H     4.493000000     6.393000000     0.459000000
H     5.447000000     6.056000000    -0.667000000
O     3.743000000     6.168000000     2.929000000
H     3.514000000     5.251000000     3.077000000
H     3.028000000     6.511000000     2.394000000
O     5.265000000     2.714000000     7.981000000
H     5.205000000     2.422000000     7.071000000
H     4.367000000     2.946000000     8.217000000
