201
-1231.15378
C     2.821000000    -2.672000000     3.903000000
H     3.071000000    -3.506000000     3.252000000
C     1.476000000    -2.391000000     4.155000000
C     1.241000000    -1.296000000     4.985000000
H     0.193000000    -1.014000000     5.036000000
C     0.358000000    -2.905000000     3.275000000
O     0.731000000    -4.154000000     2.697000000
H     0.242000000    -2.181000000     2.456000000
O    -0.858000000    -3.098000000     3.963000000
C    -1.960000000    -2.675000000     3.285000000
C    -2.269000000    -1.331000000     3.415000000
H    -1.714000000    -0.659000000     4.065000000
C    -3.351000000    -0.820000000     2.738000000
O    -3.580000000     0.520000000     3.006000000
C    -4.075000000    -1.592000000     1.776000000
C    -5.197000000    -1.058000000     0.958000000
H    -5.785000000    -1.956000000     0.756000000
C    -4.686000000    -0.317000000    -0.285000000
C    -4.559000000    -0.934000000    -1.506000000
H    -4.729000000    -2.004000000    -1.590000000
H    -5.699000000    -0.333000000     1.601000000
C    -3.631000000    -2.931000000     1.593000000
H    -4.169000000    -3.508000000     0.847000000
C    -2.590000000    -3.485000000     2.320000000
C    -2.141000000    -4.861000000     1.946000000
H    -2.853000000    -5.588000000     1.552000000
H    -1.795000000    -5.391000000     2.836000000
C    -0.894000000    -4.723000000     1.024000000
C    -1.210000000    -4.819000000    -0.372000000
H    -2.233000000    -4.967000000    -0.707000000
C     0.430000000    -4.468000000     1.383000000
C     1.465000000    -4.287000000     0.473000000
H     2.477000000    -4.083000000     0.812000000
C     1.121000000    -4.348000000    -0.913000000
O     2.114000000    -4.042000000    -1.878000000
C     2.153000000    -2.819000000    -2.600000000
C     3.507000000    -2.248000000    -2.732000000
C     3.949000000    -1.478000000    -3.801000000
H     3.300000000    -1.272000000    -4.649000000
C     4.310000000    -2.211000000    -1.585000000
H     3.866000000    -2.729000000    -0.739000000
O     1.562000000    -2.974000000    -3.888000000
H     1.555000000    -2.083000000    -2.043000000
C    -0.184000000    -4.587000000    -1.305000000
C    -0.595000000    -4.733000000    -2.766000000
H    -1.383000000    -5.476000000    -2.901000000
H     0.213000000    -5.184000000    -3.345000000
C    -0.890000000    -3.361000000    -3.415000000
C    -2.247000000    -2.883000000    -3.384000000
H    -3.009000000    -3.459000000    -2.866000000
C     0.167000000    -2.588000000    -3.915000000
C    -0.080000000    -1.346000000    -4.413000000
H     0.753000000    -0.790000000    -4.836000000
C    -1.385000000    -0.860000000    -4.524000000
O    -1.543000000     0.456000000    -4.852000000
C    -1.692000000     1.294000000    -3.712000000
C    -0.993000000     2.659000000    -3.755000000
C     0.297000000     2.687000000    -4.287000000
H     0.664000000     1.759000000    -4.719000000
C    -1.419000000     3.874000000    -3.172000000
H    -2.411000000     3.800000000    -2.734000000
O    -3.084000000     1.579000000    -3.583000000
H    -1.386000000     0.795000000    -2.781000000
C    -2.507000000    -1.605000000    -4.017000000
C    -3.930000000    -1.054000000    -3.959000000
H    -4.576000000    -1.934000000    -3.943000000
H    -4.278000000    -0.514000000    -4.842000000
C    -4.209000000    -0.243000000    -2.663000000
C    -3.752000000     1.068000000    -2.528000000
C    -3.845000000     1.690000000    -1.305000000
H    -3.608000000     2.748000000    -1.228000000
C    -4.337000000     1.010000000    -0.204000000
O    -4.336000000     1.609000000     1.038000000
C    -3.201000000     1.474000000     1.996000000
H    -2.291000000     1.162000000     1.461000000
C    -2.749000000     2.788000000     2.654000000
C    -2.208000000     2.782000000     3.961000000
H    -2.149000000     1.822000000     4.468000000
C    -2.796000000     4.020000000     1.942000000
H    -3.069000000     4.005000000     0.890000000
C    -2.344000000     5.239000000     2.525000000
O    -2.204000000     6.393000000     1.797000000
C    -1.909000000     5.178000000     3.856000000
H    -1.539000000     6.072000000     4.352000000
C    -1.732000000     3.995000000     4.545000000
O    -1.129000000     4.006000000     5.782000000
C    -0.774000000     2.860000000     6.449000000
C     0.474000000     2.303000000     6.241000000
H     1.126000000     2.823000000     5.545000000
C    -1.621000000     2.175000000     7.362000000
H    -2.568000000     2.651000000     7.604000000
C    -1.270000000     0.956000000     7.925000000
H    -1.955000000     0.439000000     8.591000000
C    -0.062000000     0.366000000     7.591000000
H     0.264000000    -0.613000000     7.932000000
C     0.792000000     1.064000000     6.757000000
O     2.055000000     0.477000000     6.467000000
C     2.278000000    -0.599000000     5.665000000
C     3.540000000    -1.017000000     5.433000000
H     4.410000000    -0.648000000     5.971000000
C     3.835000000    -1.998000000     4.482000000
O     5.117000000    -2.423000000     4.122000000
C     5.453000000    -2.908000000     2.910000000
C     5.738000000    -2.091000000     1.880000000
H     5.553000000    -1.022000000     1.943000000
C     5.578000000    -4.287000000     2.696000000
H     5.229000000    -5.000000000     3.439000000
C     6.082000000    -4.832000000     1.511000000
H     6.157000000    -5.905000000     1.356000000
C     6.280000000    -3.970000000     0.462000000
H     6.447000000    -4.379000000    -0.532000000
C     6.085000000    -2.601000000     0.629000000
O     6.301000000    -1.648000000    -0.361000000
C     5.507000000    -1.524000000    -1.542000000
C     6.013000000    -0.964000000    -2.667000000
H     6.991000000    -0.525000000    -2.489000000
C     5.128000000    -0.743000000    -3.730000000
O     5.487000000     0.082000000    -4.784000000
C     4.546000000     0.854000000    -5.241000000
C     3.778000000     1.791000000    -4.441000000
H     3.953000000     1.623000000    -3.381000000
C     4.481000000     0.901000000    -6.627000000
H     5.129000000     0.226000000    -7.179000000
C     3.660000000     1.856000000    -7.266000000
H     3.612000000     1.998000000    -8.342000000
C     2.892000000     2.771000000    -6.490000000
H     2.342000000     3.607000000    -6.914000000
C     3.039000000     2.775000000    -5.097000000
O     2.482000000     3.735000000    -4.306000000
C     1.158000000     3.843000000    -4.138000000
C     0.625000000     4.991000000    -3.539000000
H     1.174000000     5.929000000    -3.512000000
C    -0.704000000     5.004000000    -3.169000000
O    -1.296000000     6.218000000    -2.820000000
C    -2.233000000     6.276000000    -1.811000000
C    -3.536000000     6.534000000    -2.122000000
H    -3.900000000     6.501000000    -3.146000000
C    -4.450000000     6.737000000    -1.128000000
H    -5.478000000     7.029000000    -1.326000000
C    -4.049000000     6.695000000     0.203000000
H    -4.727000000     6.820000000     1.043000000
C    -2.702000000     6.487000000     0.530000000
C    -1.800000000     6.366000000    -0.502000000
H    -0.731000000     6.303000000    -0.314000000
O     4.930000000     1.493000000     5.002000000
H     5.248000000     1.506000000     5.905000000
H     4.353000000     2.254000000     4.940000000
O    -3.262000000     8.973000000     2.825000000
H    -2.706000000     9.578000000     2.334000000
H    -3.046000000     8.110000000     2.473000000
O     3.101000000     6.029000000    -0.900000000
H     3.594000000     5.219000000    -0.769000000
H     2.576000000     6.121000000    -0.105000000
O     1.624000000     8.119000000     1.916000000
H     1.110000000     8.478000000     1.193000000
H     1.548000000     7.170000000     1.816000000
O    -0.278000000    10.536000000     2.946000000
H     0.414000000    11.108000000     2.613000000
H     0.170000000     9.717000000     3.158000000
O     1.440000000     5.906000000     5.624000000
H     1.309000000     5.401000000     4.822000000
H     0.675000000     5.704000000     6.162000000
O     2.802000000    10.237000000     4.375000000
H     3.662000000     9.885000000     4.147000000
H     2.266000000     9.463000000     4.552000000
O     3.937000000     3.318000000    -0.976000000
H     3.096000000     2.865000000    -0.924000000
H     4.568000000     2.694000000    -0.618000000
O     5.150000000     8.745000000     4.570000000
H     4.669000000     7.958000000     4.315000000
H     5.542000000     8.523000000     5.415000000
O    -1.414000000     7.701000000     6.374000000
H    -0.910000000     7.918000000     7.158000000
H    -0.905000000     8.071000000     5.652000000
O     6.742000000     3.605000000     4.424000000
H     6.123000000     3.882000000     5.098000000
H     6.619000000     2.657000000     4.361000000
O     2.883000000     8.160000000    -2.563000000
H     3.007000000     7.310000000    -2.141000000
H     3.770000000     8.461000000    -2.761000000
O     0.776000000    10.140000000     0.083000000
H     1.590000000    10.635000000     0.179000000
H     0.532000000    10.257000000    -0.836000000
O     0.137000000     8.042000000     4.186000000
H     0.439000000     8.038000000     3.277000000
H     0.344000000     7.166000000     4.511000000
O     2.463000000     7.837000000     7.316000000
H     1.625000000     7.930000000     7.769000000
H     2.290000000     7.205000000     6.619000000
O     3.669000000     4.012000000     4.538000000
H     3.573000000     4.401000000     5.407000000
H     2.956000000     4.391000000     4.025000000
O     4.085000000     6.599000000     3.412000000
H     3.419000000     6.912000000     2.800000000
H     3.796000000     5.718000000     3.651000000
O     6.717000000     5.579000000     2.641000000
H     6.584000000     4.729000000     3.060000000
H     6.114000000     6.167000000     3.097000000
O     5.263000000     7.977000000    -0.365000000
H     5.220000000     8.090000000     0.584000000
H     4.552000000     7.368000000    -0.565000000
