201
-1264.42962
C     2.833000000    -2.554000000     3.957000000
H     3.084000000    -3.093000000     3.046000000
C     1.507000000    -2.424000000     4.342000000
C     1.240000000    -1.677000000     5.486000000
H     0.197000000    -1.469000000     5.707000000
C     0.355000000    -3.047000000     3.505000000
O     0.810000000    -4.242000000     2.871000000
H     0.173000000    -2.361000000     2.665000000
O    -0.910000000    -3.110000000     4.236000000
C    -1.998000000    -2.661000000     3.501000000
C    -2.418000000    -1.317000000     3.709000000
H    -1.880000000    -0.675000000     4.401000000
C    -3.448000000    -0.797000000     2.913000000
O    -3.567000000     0.555000000     3.006000000
C    -4.054000000    -1.639000000     1.951000000
C    -5.305000000    -1.078000000     1.170000000
H    -6.037000000    -1.853000000     0.932000000
C    -4.843000000    -0.339000000    -0.065000000
C    -4.775000000    -1.070000000    -1.233000000
H    -4.869000000    -2.153000000    -1.239000000
H    -5.855000000    -0.451000000     1.875000000
C    -3.716000000    -2.945000000     1.800000000
H    -4.221000000    -3.579000000     1.076000000
C    -2.616000000    -3.418000000     2.527000000
C    -2.043000000    -4.793000000     2.173000000
H    -2.836000000    -5.416000000     1.756000000
H    -1.755000000    -5.341000000     3.073000000
C    -0.894000000    -4.658000000     1.186000000
C    -1.194000000    -4.715000000    -0.220000000
H    -2.213000000    -4.947000000    -0.519000000
C     0.444000000    -4.432000000     1.571000000
C     1.367000000    -4.142000000     0.544000000
H     2.406000000    -3.893000000     0.742000000
C     1.080000000    -4.163000000    -0.778000000
O     2.054000000    -3.853000000    -1.749000000
C     1.831000000    -2.530000000    -2.385000000
C     3.061000000    -1.660000000    -2.413000000
C     3.412000000    -0.810000000    -3.481000000
H     2.752000000    -0.767000000    -4.344000000
C     3.891000000    -1.660000000    -1.282000000
H     3.759000000    -2.327000000    -0.434000000
O     1.330000000    -2.692000000    -3.682000000
H     1.072000000    -1.995000000    -1.797000000
C    -0.186000000    -4.560000000    -1.177000000
C    -0.508000000    -4.759000000    -2.600000000
H    -1.261000000    -5.540000000    -2.724000000
H     0.340000000    -5.304000000    -3.020000000
C    -0.937000000    -3.481000000    -3.291000000
C    -2.324000000    -3.175000000    -3.332000000
H    -3.009000000    -3.808000000    -2.774000000
C    -0.021000000    -2.612000000    -3.868000000
C    -0.481000000    -1.496000000    -4.533000000
H     0.292000000    -0.803000000    -4.857000000
C    -1.826000000    -1.129000000    -4.548000000
O    -2.080000000     0.191000000    -4.874000000
C    -1.940000000     1.119000000    -3.798000000
C    -1.059000000     2.394000000    -4.128000000
C    -0.141000000     2.428000000    -5.141000000
H    -0.052000000     1.589000000    -5.826000000
C    -1.257000000     3.607000000    -3.453000000
H    -2.109000000     3.640000000    -2.780000000
O    -3.315000000     1.507000000    -3.428000000
H    -1.563000000     0.491000000    -2.976000000
C    -2.725000000    -1.975000000    -3.899000000
C    -4.151000000    -1.497000000    -3.574000000
H    -4.775000000    -2.391000000    -3.513000000
H    -4.545000000    -0.907000000    -4.404000000
C    -4.224000000    -0.544000000    -2.358000000
C    -3.842000000     0.866000000    -2.354000000
C    -3.956000000     1.612000000    -1.165000000
H    -3.705000000     2.669000000    -1.139000000
C    -4.391000000     0.986000000    -0.045000000
O    -4.306000000     1.746000000     1.088000000
C    -3.174000000     1.419000000     1.898000000
H    -2.406000000     0.936000000     1.275000000
C    -2.508000000     2.573000000     2.529000000
C    -1.728000000     2.453000000     3.702000000
H    -1.769000000     1.527000000     4.270000000
C    -2.519000000     3.842000000     1.893000000
H    -3.253000000     3.973000000     1.101000000
C    -1.674000000     4.892000000     2.353000000
O    -1.701000000     6.132000000     1.727000000
C    -0.977000000     4.711000000     3.597000000
H    -0.210000000     5.390000000     3.960000000
C    -1.050000000     3.527000000     4.290000000
O    -0.247000000     3.404000000     5.484000000
C    -0.302000000     2.323000000     6.311000000
C     0.823000000     1.538000000     6.472000000
H     1.739000000     1.738000000     5.923000000
C    -1.402000000     2.151000000     7.144000000
H    -2.262000000     2.814000000     7.188000000
C    -1.386000000     1.114000000     8.100000000
H    -2.170000000     0.949000000     8.835000000
C    -0.269000000     0.227000000     8.214000000
H    -0.263000000    -0.565000000     8.959000000
C     0.800000000     0.478000000     7.351000000
O     1.915000000    -0.329000000     7.369000000
C     2.234000000    -1.035000000     6.236000000
C     3.595000000    -1.190000000     5.817000000
H     4.428000000    -0.738000000     6.351000000
C     3.878000000    -1.974000000     4.693000000
O     5.148000000    -2.110000000     4.287000000
C     5.586000000    -2.469000000     3.004000000
C     5.538000000    -1.465000000     2.112000000
H     5.319000000    -0.435000000     2.383000000
C     5.920000000    -3.784000000     2.663000000
H     5.914000000    -4.630000000     3.345000000
C     6.210000000    -4.077000000     1.355000000
H     6.248000000    -5.133000000     1.096000000
C     6.365000000    -2.991000000     0.459000000
H     6.591000000    -3.288000000    -0.562000000
C     5.926000000    -1.675000000     0.824000000
O     5.677000000    -0.705000000    -0.072000000
C     4.977000000    -0.824000000    -1.236000000
C     5.362000000     0.004000000    -2.267000000
H     6.298000000     0.554000000    -2.212000000
C     4.517000000     0.058000000    -3.402000000
O     4.809000000     1.045000000    -4.336000000
C     4.048000000     1.284000000    -5.411000000
C     3.043000000     2.302000000    -5.367000000
H     2.908000000     2.737000000    -4.380000000
C     4.446000000     0.793000000    -6.644000000
H     5.332000000     0.164000000    -6.666000000
C     3.793000000     1.128000000    -7.796000000
H     4.074000000     0.712000000    -8.759000000
C     2.754000000     2.049000000    -7.741000000
H     2.227000000     2.252000000    -8.669000000
C     2.420000000     2.681000000    -6.549000000
O     1.437000000     3.616000000    -6.469000000
C     0.507000000     3.566000000    -5.484000000
C     0.405000000     4.702000000    -4.683000000
H     1.011000000     5.561000000    -4.959000000
C    -0.481000000     4.722000000    -3.615000000
O    -0.492000000     5.845000000    -2.838000000
C    -1.429000000     6.152000000    -1.923000000
C    -2.538000000     6.909000000    -2.277000000
H    -2.867000000     7.051000000    -3.304000000
C    -3.464000000     7.295000000    -1.299000000
H    -4.343000000     7.871000000    -1.578000000
C    -3.239000000     6.935000000    -0.013000000
H    -3.960000000     7.195000000     0.758000000
C    -2.009000000     6.288000000     0.412000000
C    -1.120000000     5.836000000    -0.575000000
H    -0.169000000     5.370000000    -0.331000000
O     3.439000000     7.317000000     7.259000000
H     2.956000000     8.088000000     7.556000000
H     2.770000000     6.746000000     6.881000000
O     6.840000000     0.832000000     5.221000000
H     7.016000000     1.165000000     6.101000000
H     6.144000000     1.398000000     4.887000000
O    -1.559000000     8.287000000     3.449000000
H    -1.571000000     8.916000000     2.727000000
H    -1.214000000     7.483000000     3.060000000
O     3.296000000     6.121000000    -0.877000000
H     4.038000000     6.588000000    -0.493000000
H     2.941000000     5.601000000    -0.156000000
O     1.079000000     7.308000000     2.337000000
H     0.974000000     7.759000000     1.499000000
H     1.483000000     6.471000000     2.109000000
O     3.627000000     3.928000000     6.830000000
H     3.926000000     4.021000000     7.735000000
H     2.706000000     4.187000000     6.854000000
O     2.996000000     5.755000000     4.830000000
H     2.938000000     5.146000000     4.093000000
H     3.386000000     5.240000000     5.536000000
O     6.550000000     4.714000000    -0.775000000
H     6.134000000     3.893000000    -0.514000000
H     7.293000000     4.445000000    -1.316000000
O     4.121000000     3.338000000    -1.641000000
H     3.464000000     3.944000000    -1.299000000
H     4.317000000     2.757000000    -0.905000000
O     5.554000000     2.123000000     0.544000000
H     5.843000000     1.210000000     0.538000000
H     5.115000000     2.229000000     1.387000000
O     1.276000000     5.485000000     7.232000000
H     0.945000000     4.821000000     6.627000000
H     0.515000000     5.732000000     7.756000000
O     3.289000000     7.309000000    -3.343000000
H     2.871000000     7.077000000    -2.514000000
H     4.225000000     7.190000000    -3.181000000
O     1.680000000     8.987000000     0.130000000
H     2.393000000     9.513000000    -0.232000000
H     0.933000000     9.173000000    -0.439000000
O     1.524000000     8.119000000     5.020000000
H     1.243000000     8.150000000     4.106000000
H     1.958000000     7.271000000     5.109000000
O     4.533000000     2.535000000     4.622000000
H     4.453000000     2.999000000     5.455000000
H     3.853000000     2.919000000     4.068000000
O     4.837000000     5.495000000     2.332000000
H     4.517000000     6.383000000     2.493000000
H     4.092000000     5.040000000     1.939000000
O     7.177000000     4.321000000     3.275000000
H     6.996000000     4.081000000     4.184000000
H     6.313000000     4.394000000     2.871000000
O     4.574000000     8.097000000     3.181000000
H     5.430000000     8.449000000     3.424000000
H     4.250000000     7.683000000     3.982000000
O     5.886000000     7.131000000     0.090000000
H     5.771000000     6.801000000     0.981000000
H     5.888000000     6.346000000    -0.457000000
