201
-1237.46880
C     3.084000000    -1.924000000     3.714000000
H     3.276000000    -2.611000000     2.894000000
C     1.820000000    -1.866000000     4.232000000
C     1.563000000    -0.914000000     5.268000000
H     0.525000000    -0.746000000     5.542000000
C     0.749000000    -2.579000000     3.517000000
O     1.075000000    -3.896000000     3.119000000
H     0.564000000    -2.033000000     2.580000000
O    -0.495000000    -2.529000000     4.313000000
C    -1.673000000    -2.292000000     3.634000000
C    -2.083000000    -0.899000000     3.755000000
H    -1.465000000    -0.180000000     4.285000000
C    -3.206000000    -0.581000000     3.044000000
O    -3.722000000     0.698000000     3.109000000
C    -4.007000000    -1.526000000     2.387000000
C    -5.241000000    -1.158000000     1.576000000
H    -5.880000000    -2.040000000     1.501000000
C    -4.845000000    -0.533000000     0.189000000
C    -4.535000000    -1.354000000    -0.859000000
H    -4.574000000    -2.437000000    -0.773000000
H    -5.862000000    -0.428000000     2.100000000
C    -3.568000000    -2.828000000     2.297000000
H    -4.094000000    -3.546000000     1.673000000
C    -2.345000000    -3.200000000     2.869000000
C    -1.698000000    -4.562000000     2.649000000
H    -2.451000000    -5.306000000     2.381000000
H    -1.344000000    -4.968000000     3.599000000
C    -0.698000000    -4.511000000     1.566000000
C    -1.163000000    -4.826000000     0.240000000
H    -2.191000000    -5.135000000     0.070000000
C     0.605000000    -4.244000000     1.844000000
C     1.516000000    -4.175000000     0.775000000
H     2.557000000    -3.976000000     1.016000000
C     1.085000000    -4.447000000    -0.533000000
O     2.083000000    -4.318000000    -1.456000000
C     2.024000000    -3.177000000    -2.286000000
C     3.429000000    -2.550000000    -2.468000000
C     3.666000000    -1.654000000    -3.469000000
H     2.842000000    -1.488000000    -4.158000000
C     4.416000000    -2.737000000    -1.487000000
H     4.292000000    -3.318000000    -0.576000000
O     1.275000000    -3.413000000    -3.513000000
H     1.415000000    -2.403000000    -1.797000000
C    -0.225000000    -4.823000000    -0.787000000
C    -0.646000000    -5.216000000    -2.239000000
H    -1.519000000    -5.871000000    -2.231000000
H     0.097000000    -5.783000000    -2.804000000
C    -1.058000000    -4.019000000    -3.001000000
C    -2.340000000    -3.484000000    -3.017000000
H    -3.166000000    -4.052000000    -2.596000000
C    -0.101000000    -3.195000000    -3.623000000
C    -0.396000000    -1.974000000    -4.225000000
H     0.381000000    -1.405000000    -4.729000000
C    -1.660000000    -1.458000000    -4.163000000
O    -1.886000000    -0.141000000    -4.641000000
C    -2.140000000     0.940000000    -3.666000000
C    -1.444000000     2.226000000    -4.087000000
C    -0.080000000     2.262000000    -4.267000000
H     0.513000000     1.364000000    -4.419000000
C    -2.096000000     3.487000000    -3.835000000
H    -3.150000000     3.544000000    -3.577000000
O    -3.576000000     1.096000000    -3.455000000
H    -1.608000000     0.603000000    -2.765000000
C    -2.671000000    -2.177000000    -3.505000000
C    -4.066000000    -1.656000000    -3.430000000
H    -4.726000000    -2.512000000    -3.276000000
H    -4.403000000    -1.151000000    -4.338000000
C    -4.287000000    -0.824000000    -2.165000000
C    -4.101000000     0.573000000    -2.309000000
C    -4.348000000     1.400000000    -1.258000000
H    -4.291000000     2.479000000    -1.380000000
C    -4.710000000     0.908000000     0.039000000
O    -4.483000000     1.719000000     1.128000000
C    -3.342000000     1.467000000     1.950000000
H    -2.557000000     1.009000000     1.330000000
C    -2.651000000     2.831000000     2.271000000
C    -1.717000000     3.001000000     3.354000000
H    -1.334000000     2.155000000     3.918000000
C    -2.924000000     3.982000000     1.520000000
H    -3.597000000     3.873000000     0.673000000
C    -2.323000000     5.227000000     1.771000000
O    -2.658000000     6.357000000     1.107000000
C    -1.411000000     5.347000000     2.752000000
H    -0.808000000     6.246000000     2.860000000
C    -1.026000000     4.252000000     3.535000000
O    -0.009000000     4.384000000     4.442000000
C     0.213000000     3.508000000     5.524000000
C     1.271000000     2.592000000     5.547000000
H     2.014000000     2.581000000     4.754000000
C    -0.741000000     3.535000000     6.498000000
H    -1.558000000     4.244000000     6.392000000
C    -0.632000000     2.655000000     7.645000000
H    -1.330000000     2.767000000     8.471000000
C     0.449000000     1.732000000     7.732000000
H     0.576000000     1.098000000     8.606000000
C     1.353000000     1.715000000     6.653000000
O     2.404000000     0.861000000     6.750000000
C     2.650000000    -0.136000000     5.761000000
C     3.932000000    -0.255000000     5.264000000
H     4.773000000     0.358000000     5.579000000
C     4.183000000    -1.233000000     4.264000000
O     5.529000000    -1.303000000     3.774000000
C     5.896000000    -2.219000000     2.763000000
C     6.264000000    -1.818000000     1.470000000
H     6.307000000    -0.792000000     1.112000000
C     5.788000000    -3.545000000     3.135000000
H     5.590000000    -3.824000000     4.166000000
C     6.117000000    -4.477000000     2.207000000
H     6.046000000    -5.548000000     2.379000000
C     6.458000000    -4.130000000     0.906000000
H     6.716000000    -4.862000000     0.145000000
C     6.523000000    -2.805000000     0.544000000
O     6.716000000    -2.544000000    -0.816000000
C     5.640000000    -2.125000000    -1.617000000
C     5.901000000    -1.228000000    -2.645000000
H     6.888000000    -0.816000000    -2.839000000
C     4.856000000    -0.926000000    -3.577000000
O     5.163000000    -0.143000000    -4.652000000
C     4.323000000     0.599000000    -5.343000000
C     3.708000000     1.663000000    -4.667000000
H     3.973000000     1.846000000    -3.629000000
C     4.264000000     0.556000000    -6.734000000
H     4.739000000    -0.262000000    -7.269000000
C     3.423000000     1.390000000    -7.426000000
H     3.301000000     1.266000000    -8.499000000
C     2.698000000     2.320000000    -6.693000000
H     1.987000000     2.939000000    -7.234000000
C     2.792000000     2.435000000    -5.329000000
O     2.086000000     3.312000000    -4.540000000
C     0.682000000     3.424000000    -4.403000000
C     0.059000000     4.661000000    -4.177000000
H     0.584000000     5.613000000    -4.162000000
C    -1.352000000     4.695000000    -3.883000000
O    -1.976000000     5.890000000    -3.615000000
C    -2.921000000     5.992000000    -2.606000000
C    -4.194000000     6.497000000    -2.810000000
H    -4.528000000     6.641000000    -3.835000000
C    -5.022000000     6.775000000    -1.727000000
H    -6.094000000     6.943000000    -1.789000000
C    -4.480000000     6.721000000    -0.458000000
H    -5.167000000     6.906000000     0.364000000
C    -3.148000000     6.378000000    -0.199000000
C    -2.432000000     5.937000000    -1.330000000
H    -1.412000000     5.590000000    -1.185000000
O     7.270000000     6.074000000     1.778000000
H     7.012000000     6.345000000     0.897000000
H     6.997000000     5.158000000     1.836000000
O     4.751000000     6.907000000    -3.653000000
H     5.383000000     6.264000000    -3.974000000
H     3.984000000     6.389000000    -3.409000000
O     3.463000000     4.436000000     2.492000000
H     3.911000000     4.388000000     1.648000000
H     3.566000000     3.562000000     2.869000000
O     6.232000000     3.634000000     1.933000000
H     5.531000000     3.219000000     1.431000000
H     6.397000000     3.031000000     2.658000000
O     6.809000000     2.353000000    -1.175000000
H     7.266000000     1.829000000    -0.516000000
H     5.883000000     2.266000000    -0.950000000
O     8.644000000     4.371000000    -1.321000000
H     7.961000000     3.702000000    -1.283000000
H     9.156000000     4.237000000    -0.524000000
O     1.232000000     5.424000000     0.225000000
H     1.939000000     4.787000000     0.126000000
H     1.445000000     5.895000000     1.030000000
O     2.722000000     5.494000000    -2.805000000
H     2.185000000     4.840000000    -3.252000000
H     3.093000000     5.028000000    -2.056000000
O     7.933000000     1.241000000    -3.698000000
H     7.476000000     1.270000000    -2.858000000
H     8.777000000     0.835000000    -3.499000000
O     8.262000000     1.179000000     0.818000000
H     8.711000000     0.487000000     0.332000000
H     8.251000000     0.867000000     1.723000000
O     5.705000000     3.643000000    -6.681000000
H     6.525000000     3.152000000    -6.617000000
H     5.168000000     3.307000000    -5.963000000
O     6.938000000     2.080000000     4.439000000
H     7.486000000     2.681000000     4.943000000
H     7.264000000     1.209000000     4.670000000
O     2.136000000     6.330000000     3.853000000
H     1.283000000     5.929000000     4.021000000
H     2.596000000     5.694000000     3.305000000
O     5.799000000     5.125000000    -0.795000000
H     5.218000000     4.365000000    -0.832000000
H     6.509000000     4.855000000    -0.211000000
O     0.845000000     7.574000000    -1.396000000
H     1.555000000     7.349000000    -1.997000000
H     0.739000000     6.797000000    -0.848000000
O     4.236000000     1.654000000     2.825000000
H     4.647000000     0.881000000     3.212000000
H     4.303000000     1.512000000     1.880000000
O     5.496000000     7.587000000    -1.253000000
H     5.033000000     7.512000000    -2.087000000
H     5.650000000     6.682000000    -0.982000000
O     4.807000000     5.258000000     5.093000000
H     5.381000000     5.811000000     4.563000000
H     4.156000000     4.927000000     4.475000000
O     6.780000000     5.086000000    -3.599000000
H     6.826000000     4.170000000    -3.871000000
H     7.362000000     5.141000000    -2.841000000
