201
-1249.91038
C     2.815000000    -2.984000000     2.370000000
H     2.730000000    -3.516000000     1.426000000
C     1.755000000    -2.827000000     3.224000000
C     1.869000000    -2.092000000     4.416000000
H     0.953000000    -1.863000000     4.954000000
C     0.336000000    -3.156000000     2.704000000
O     0.387000000    -4.334000000     1.904000000
H     0.101000000    -2.325000000     2.023000000
O    -0.611000000    -3.270000000     3.798000000
C    -1.822000000    -2.611000000     3.637000000
C    -1.918000000    -1.285000000     4.148000000
H    -1.147000000    -0.912000000     4.817000000
C    -2.923000000    -0.485000000     3.816000000
O    -2.933000000     0.779000000     4.299000000
C    -3.818000000    -0.989000000     2.871000000
C    -4.930000000    -0.125000000     2.431000000
H    -5.820000000    -0.695000000     2.159000000
C    -4.640000000     0.798000000     1.251000000
C    -4.931000000     0.361000000     0.032000000
H    -5.326000000    -0.642000000    -0.108000000
H    -5.274000000     0.482000000     3.271000000
C    -3.699000000    -2.215000000     2.258000000
H    -4.431000000    -2.531000000     1.520000000
C    -2.683000000    -3.081000000     2.690000000
C    -2.596000000    -4.432000000     2.095000000
H    -3.600000000    -4.810000000     1.891000000
H    -2.301000000    -5.152000000     2.862000000
C    -1.775000000    -4.485000000     0.794000000
C    -2.449000000    -4.348000000    -0.428000000
H    -3.516000000    -4.138000000    -0.433000000
C    -0.386000000    -4.484000000     0.733000000
C     0.294000000    -4.510000000    -0.508000000
H     1.379000000    -4.502000000    -0.581000000
C    -0.402000000    -4.495000000    -1.701000000
O     0.362000000    -4.297000000    -2.860000000
C     0.577000000    -2.933000000    -3.257000000
C     1.985000000    -2.769000000    -3.778000000
C     2.192000000    -1.964000000    -4.847000000
H     1.375000000    -1.549000000    -5.432000000
C     3.074000000    -3.181000000    -3.036000000
H     2.886000000    -3.798000000    -2.161000000
O    -0.389000000    -2.469000000    -4.249000000
H     0.405000000    -2.269000000    -2.397000000
C    -1.793000000    -4.306000000    -1.694000000
C    -2.642000000    -4.019000000    -2.960000000
H    -3.658000000    -4.414000000    -2.891000000
H    -2.166000000    -4.556000000    -3.784000000
C    -2.616000000    -2.535000000    -3.233000000
C    -3.673000000    -1.785000000    -2.769000000
H    -4.492000000    -2.241000000    -2.218000000
C    -1.520000000    -1.844000000    -3.836000000
C    -1.654000000    -0.459000000    -4.143000000
H    -0.771000000    -0.006000000    -4.585000000
C    -2.744000000     0.234000000    -3.785000000
O    -2.756000000     1.571000000    -3.910000000
C    -2.310000000     2.390000000    -2.775000000
C    -1.078000000     3.214000000    -3.162000000
C    -0.218000000     2.891000000    -4.197000000
H    -0.399000000     2.003000000    -4.797000000
C    -0.903000000     4.360000000    -2.495000000
H    -1.580000000     4.571000000    -1.671000000
O    -3.389000000     3.033000000    -2.017000000
H    -1.876000000     1.706000000    -2.030000000
C    -3.674000000    -0.337000000    -2.947000000
C    -4.858000000     0.549000000    -2.503000000
H    -5.774000000    -0.044000000    -2.478000000
H    -5.033000000     1.356000000    -3.218000000
C    -4.577000000     1.099000000    -1.092000000
C    -3.924000000     2.345000000    -0.962000000
C    -3.742000000     2.829000000     0.341000000
H    -3.149000000     3.736000000     0.423000000
C    -4.078000000     2.031000000     1.428000000
O    -3.619000000     2.418000000     2.658000000
C    -2.473000000     1.704000000     3.245000000
H    -1.922000000     1.168000000     2.457000000
C    -1.484000000     2.768000000     3.826000000
C    -0.892000000     2.589000000     5.063000000
H    -1.100000000     1.702000000     5.656000000
C    -1.102000000     3.912000000     3.100000000
H    -1.523000000     4.049000000     2.108000000
C    -0.046000000     4.750000000     3.502000000
O     0.512000000     5.670000000     2.608000000
C     0.511000000     4.547000000     4.749000000
H     1.403000000     5.119000000     4.991000000
C     0.070000000     3.467000000     5.535000000
O     0.831000000     3.155000000     6.668000000
C     1.073000000     1.842000000     6.944000000
C     1.901000000     1.117000000     6.109000000
H     2.356000000     1.534000000     5.213000000
C     0.606000000     1.361000000     8.186000000
H    -0.052000000     1.958000000     8.812000000
C     1.087000000     0.149000000     8.647000000
H     0.779000000    -0.224000000     9.621000000
C     1.910000000    -0.634000000     7.791000000
H     2.226000000    -1.624000000     8.109000000
C     2.334000000    -0.123000000     6.538000000
O     3.272000000    -0.747000000     5.834000000
C     3.067000000    -1.538000000     4.785000000
C     4.182000000    -1.748000000     3.908000000
H     5.160000000    -1.337000000     4.147000000
C     4.048000000    -2.483000000     2.695000000
O     5.139000000    -2.396000000     1.884000000
C     5.432000000    -3.326000000     0.859000000
C     5.255000000    -2.955000000    -0.466000000
H     4.777000000    -2.007000000    -0.698000000
C     6.092000000    -4.514000000     1.207000000
H     6.348000000    -4.801000000     2.224000000
C     6.409000000    -5.393000000     0.165000000
H     6.724000000    -6.358000000     0.553000000
C     6.156000000    -5.141000000    -1.153000000
H     6.394000000    -5.843000000    -1.948000000
C     5.578000000    -3.842000000    -1.505000000
O     5.501000000    -3.353000000    -2.799000000
C     4.391000000    -2.894000000    -3.475000000
C     4.617000000    -1.989000000    -4.542000000
H     5.597000000    -1.787000000    -4.966000000
C     3.490000000    -1.595000000    -5.245000000
O     3.707000000    -0.779000000    -6.299000000
C     2.851000000     0.263000000    -6.672000000
C     2.681000000     1.310000000    -5.817000000
H     3.309000000     1.281000000    -4.930000000
C     2.245000000     0.185000000    -7.916000000
H     2.428000000    -0.809000000    -8.314000000
C     1.422000000     1.216000000    -8.363000000
H     0.888000000     1.111000000    -9.304000000
C     1.197000000     2.254000000    -7.466000000
H     0.677000000     3.169000000    -7.737000000
C     1.773000000     2.283000000    -6.189000000
O     1.749000000     3.431000000    -5.508000000
C     0.759000000     3.805000000    -4.648000000
C     0.898000000     4.974000000    -3.979000000
H     1.599000000     5.719000000    -4.348000000
C     0.059000000     5.264000000    -2.880000000
O     0.271000000     6.482000000    -2.184000000
C    -0.226000000     6.629000000    -0.896000000
C    -1.410000000     7.342000000    -0.718000000
H    -1.897000000     7.816000000    -1.567000000
C    -1.912000000     7.538000000     0.581000000
H    -2.824000000     8.105000000     0.748000000
C    -1.238000000     6.962000000     1.684000000
H    -1.626000000     6.960000000     2.700000000
C    -0.090000000     6.267000000     1.532000000
C     0.372000000     6.097000000     0.231000000
H     1.229000000     5.462000000     0.022000000
O     4.018000000     6.165000000     0.204000000
H     3.798000000     5.262000000    -0.025000000
H     3.923000000     6.202000000     1.155000000
O     4.362000000     2.310000000     3.145000000
H     3.475000000     2.401000000     2.795000000
H     4.849000000     1.867000000     2.450000000
O     7.466000000     5.071000000     0.112000000
H     8.308000000     5.411000000    -0.189000000
H     6.816000000     5.555000000    -0.397000000
O     7.208000000    -0.416000000    -1.750000000
H     6.294000000    -0.132000000    -1.722000000
H     7.643000000     0.113000000    -1.081000000
O     7.362000000     2.071000000    -4.742000000
H     7.076000000     2.205000000    -5.646000000
H     7.799000000     1.219000000    -4.754000000
O     7.740000000     1.496000000     4.027000000
H     7.209000000     2.137000000     3.555000000
H     8.416000000     1.237000000     3.401000000
O     7.255000000    -0.465000000     1.799000000
H     6.514000000     0.044000000     1.468000000
H     6.886000000    -1.327000000     1.991000000
O     8.448000000    -1.031000000    -3.840000000
H     9.316000000    -1.140000000    -3.451000000
H     7.873000000    -0.855000000    -3.096000000
O     3.214000000     3.853000000    -1.152000000
H     3.804000000     3.114000000    -1.301000000
H     2.525000000     3.744000000    -1.808000000
O     5.585000000     6.042000000    -1.921000000
H     5.108000000     5.655000000    -2.654000000
H     4.938000000     6.100000000    -1.217000000
O     8.718000000     4.080000000    -3.501000000
H     9.543000000     3.613000000    -3.638000000
H     8.085000000     3.612000000    -4.045000000
O     4.786000000     5.456000000     2.884000000
H     4.546000000     5.867000000     3.715000000
H     4.753000000     4.517000000     3.062000000
O     5.398000000     1.919000000     6.023000000
H     5.164000000     1.732000000     5.114000000
H     5.565000000     1.059000000     6.409000000
O     4.678000000     2.294000000    -3.383000000
H     4.640000000     1.614000000    -2.710000000
H     5.595000000     2.308000000    -3.658000000
O     7.223000000     2.431000000     1.266000000
H     6.507000000     1.818000000     1.102000000
H     6.940000000     3.247000000     0.853000000
O     9.412000000     0.048000000     0.445000000
H     8.692000000    -0.231000000     1.012000000
H     9.841000000    -0.767000000     0.184000000
O     4.461000000     4.724000000    -4.473000000
H     4.671000000     3.829000000    -4.205000000
H     4.857000000     4.814000000    -5.339000000
O     8.588000000    -2.717000000    -1.047000000
H     8.024000000    -1.972000000    -1.256000000
H     7.996000000    -3.469000000    -1.035000000
O     8.315000000     4.861000000     2.670000000
H     7.815000000     5.186000000     1.922000000
H     8.434000000     3.928000000     2.492000000
