201
-1255.55084
C     2.890000000    -4.075000000     2.114000000
H     2.761000000    -4.855000000     1.368000000
C     1.788000000    -3.388000000     2.648000000
C     1.931000000    -2.402000000     3.662000000
H     1.057000000    -1.849000000     3.996000000
C     0.425000000    -3.680000000     2.097000000
O     0.343000000    -4.945000000     1.283000000
H     0.327000000    -2.867000000     1.362000000
O    -0.640000000    -3.714000000     3.122000000
C    -1.779000000    -3.070000000     2.783000000
C    -2.072000000    -1.982000000     3.547000000
H    -1.373000000    -1.661000000     4.315000000
C    -3.204000000    -1.201000000     3.357000000
O    -3.350000000     0.043000000     3.895000000
C    -4.099000000    -1.611000000     2.342000000
C    -5.197000000    -0.675000000     1.910000000
H    -5.926000000    -1.290000000     1.379000000
C    -4.660000000     0.307000000     0.893000000
C    -4.773000000    -0.019000000    -0.439000000
H    -5.088000000    -1.022000000    -0.712000000
H    -5.583000000    -0.127000000     2.772000000
C    -3.794000000    -2.690000000     1.501000000
H    -4.498000000    -2.994000000     0.730000000
C    -2.691000000    -3.498000000     1.828000000
C    -2.477000000    -4.834000000     1.180000000
H    -3.454000000    -5.280000000     0.982000000
H    -2.083000000    -5.479000000     1.967000000
C    -1.621000000    -4.656000000    -0.056000000
C    -2.243000000    -4.283000000    -1.235000000
H    -3.321000000    -4.140000000    -1.214000000
C    -0.251000000    -4.784000000     0.051000000
C     0.534000000    -4.441000000    -1.013000000
H     1.604000000    -4.602000000    -0.910000000
C     0.014000000    -4.035000000    -2.211000000
O     0.856000000    -3.539000000    -3.227000000
C     1.028000000    -2.072000000    -3.395000000
C     2.456000000    -1.654000000    -3.651000000
C     2.706000000    -0.411000000    -4.191000000
H     1.919000000     0.265000000    -4.515000000
C     3.467000000    -2.444000000    -3.074000000
H     3.269000000    -3.365000000    -2.533000000
O     0.101000000    -1.783000000    -4.483000000
H     0.770000000    -1.495000000    -2.494000000
C    -1.385000000    -3.852000000    -2.295000000
C    -2.021000000    -3.494000000    -3.656000000
H    -2.947000000    -4.069000000    -3.722000000
H    -1.366000000    -3.918000000    -4.420000000
C    -2.124000000    -1.993000000    -3.758000000
C    -3.345000000    -1.424000000    -3.411000000
H    -4.151000000    -2.061000000    -3.055000000
C    -1.094000000    -1.158000000    -4.273000000
C    -1.245000000     0.219000000    -4.327000000
H    -0.406000000     0.868000000    -4.565000000
C    -2.507000000     0.774000000    -3.948000000
O    -2.575000000     2.152000000    -3.896000000
C    -2.349000000     2.771000000    -2.626000000
C    -1.424000000     3.953000000    -2.720000000
C    -0.384000000     3.959000000    -3.699000000
H    -0.388000000     3.246000000    -4.519000000
C    -1.484000000     5.008000000    -1.834000000
H    -2.263000000     5.008000000    -1.075000000
O    -3.575000000     3.080000000    -2.021000000
H    -1.728000000     2.056000000    -2.066000000
C    -3.561000000    -0.050000000    -3.566000000
C    -4.743000000     0.615000000    -2.888000000
H    -5.582000000    -0.081000000    -2.950000000
H    -5.113000000     1.551000000    -3.314000000
C    -4.495000000     0.950000000    -1.420000000
C    -4.002000000     2.217000000    -1.058000000
C    -3.780000000     2.527000000     0.280000000
H    -3.389000000     3.518000000     0.499000000
C    -4.196000000     1.567000000     1.253000000
O    -3.826000000     1.854000000     2.566000000
C    -2.792000000     1.102000000     3.127000000
H    -2.162000000     0.606000000     2.374000000
C    -1.890000000     2.032000000     3.910000000
C    -1.324000000     1.684000000     5.150000000
H    -1.559000000     0.738000000     5.631000000
C    -1.338000000     3.186000000     3.293000000
H    -1.740000000     3.603000000     2.372000000
C    -0.366000000     3.965000000     3.872000000
O     0.022000000     5.098000000     3.172000000
C     0.228000000     3.658000000     5.090000000
H     1.055000000     4.201000000     5.541000000
C    -0.286000000     2.502000000     5.654000000
O     0.408000000     2.068000000     6.853000000
C     1.006000000     0.779000000     6.925000000
C     2.017000000     0.379000000     5.975000000
H     2.362000000     1.079000000     5.219000000
C     0.599000000    -0.153000000     7.846000000
H    -0.123000000     0.166000000     8.593000000
C     1.172000000    -1.431000000     7.874000000
H     0.782000000    -2.105000000     8.632000000
C     2.072000000    -1.792000000     6.904000000
H     2.537000000    -2.766000000     7.034000000
C     2.588000000    -0.877000000     6.038000000
O     3.588000000    -1.226000000     5.144000000
C     3.240000000    -2.104000000     4.059000000
C     4.313000000    -2.796000000     3.575000000
H     5.296000000    -2.585000000     3.990000000
C     4.173000000    -3.828000000     2.629000000
O     5.208000000    -4.518000000     2.102000000
C     5.389000000    -4.541000000     0.746000000
C     5.502000000    -3.402000000    -0.061000000
H     5.559000000    -2.423000000     0.407000000
C     5.383000000    -5.811000000     0.109000000
H     5.119000000    -6.676000000     0.713000000
C     5.561000000    -5.945000000    -1.206000000
H     5.639000000    -6.912000000    -1.696000000
C     5.750000000    -4.798000000    -1.995000000
H     5.912000000    -4.844000000    -3.068000000
C     5.645000000    -3.556000000    -1.474000000
O     5.849000000    -2.478000000    -2.264000000
C     4.780000000    -1.958000000    -2.992000000
C     5.054000000    -0.722000000    -3.648000000
H     6.105000000    -0.449000000    -3.607000000
C     4.021000000     0.080000000    -4.143000000
O     4.410000000     1.179000000    -4.803000000
C     3.470000000     2.005000000    -5.273000000
C     2.922000000     3.084000000    -4.566000000
H     3.217000000     3.274000000    -3.537000000
C     3.061000000     1.687000000    -6.558000000
H     3.506000000     0.863000000    -7.110000000
C     2.093000000     2.516000000    -7.090000000
H     1.701000000     2.206000000    -8.055000000
C     1.498000000     3.606000000    -6.501000000
H     0.786000000     4.215000000    -7.053000000
C     2.036000000     3.965000000    -5.252000000
O     1.548000000     5.077000000    -4.631000000
C     0.493000000     5.023000000    -3.766000000
C     0.431000000     6.030000000    -2.844000000
H     1.090000000     6.893000000    -2.889000000
C    -0.552000000     6.051000000    -1.908000000
O    -0.585000000     7.129000000    -0.989000000
C    -1.013000000     6.965000000     0.293000000
C    -2.087000000     7.703000000     0.823000000
H    -2.536000000     8.462000000     0.186000000
C    -2.571000000     7.485000000     2.094000000
H    -3.363000000     8.007000000     2.624000000
C    -1.830000000     6.542000000     2.912000000
H    -2.187000000     6.504000000     3.938000000
C    -0.697000000     5.992000000     2.432000000
C    -0.346000000     6.120000000     1.093000000
H     0.588000000     5.640000000     0.812000000
O     7.267000000     5.501000000    -0.083000000
H     6.883000000     6.355000000    -0.280000000
H     6.640000000     5.088000000     0.511000000
O     3.581000000     5.175000000     1.114000000
H     2.979000000     5.660000000     1.680000000
H     3.859000000     4.429000000     1.645000000
O     7.065000000    -0.302000000     2.392000000
H     7.138000000    -0.336000000     3.346000000
H     6.184000000     0.035000000     2.231000000
O     8.175000000     5.159000000    -2.605000000
H     7.565000000     4.577000000    -2.151000000
H     8.244000000     4.792000000    -3.486000000
O     4.460000000     1.260000000     7.714000000
H     4.044000000     1.254000000     6.853000000
H     5.057000000     2.008000000     7.686000000
O     6.852000000     0.254000000     4.975000000
H     5.944000000     0.468000000     5.189000000
H     7.118000000    -0.369000000     5.651000000
O     9.590000000     0.393000000     1.641000000
H     8.842000000    -0.031000000     2.060000000
H     9.918000000     1.006000000     2.299000000
O     4.859000000     2.735000000     4.974000000
H     4.761000000     2.832000000     4.027000000
H     4.956000000     3.631000000     5.297000000
O     9.537000000     5.402000000     1.197000000
H     9.984000000     6.237000000     1.061000000
H     8.638000000     5.563000000     0.910000000
O     5.186000000     7.517000000    -0.168000000
H     4.581000000     8.233000000    -0.366000000
H     4.618000000     6.778000000     0.051000000
O     9.487000000     1.580000000     4.304000000
H     8.539000000     1.447000000     4.307000000
H     9.598000000     2.513000000     4.122000000
O     2.823000000     5.954000000     4.021000000
H     2.264000000     6.537000000     4.536000000
H     2.307000000     5.154000000     3.920000000
O     9.227000000     2.024000000    -0.544000000
H     8.874000000     1.413000000     0.102000000
H     9.434000000     1.478000000    -1.302000000
O     5.417000000     3.367000000    -0.193000000
H     4.731000000     4.029000000    -0.108000000
H     5.227000000     2.735000000     0.500000000
O     7.098000000     2.861000000     2.333000000
H     7.481000000     3.052000000     1.476000000
H     6.429000000     2.200000000     2.155000000
O     6.994000000    -0.014000000    -0.731000000
H     6.392000000     0.257000000    -0.038000000
H     6.752000000    -0.921000000    -0.917000000
O     5.492000000     6.306000000     4.859000000
H     5.558000000     6.980000000     5.535000000
H     4.557000000     6.253000000     4.663000000
O     7.675000000     4.400000000     4.634000000
H     6.967000000     5.043000000     4.605000000
H     7.383000000     3.694000000     4.057000000
O     6.694000000     2.800000000    -2.686000000
H     6.185000000     2.920000000    -1.885000000
H     7.384000000     2.183000000    -2.441000000
