201
-1218.03909
C     2.514000000    -3.814000000     2.764000000
H     2.632000000    -4.637000000     2.064000000
C     1.186000000    -3.222000000     2.991000000
C     1.032000000    -2.191000000     3.885000000
H     0.048000000    -1.801000000     4.131000000
C     0.009000000    -3.659000000     2.074000000
O     0.402000000    -4.719000000     1.127000000
H    -0.178000000    -2.765000000     1.461000000
O    -1.148000000    -3.974000000     2.862000000
C    -2.347000000    -3.510000000     2.427000000
C    -2.764000000    -2.365000000     3.069000000
H    -2.287000000    -2.123000000     4.015000000
C    -3.829000000    -1.644000000     2.522000000
O    -4.117000000    -0.387000000     3.081000000
C    -4.367000000    -1.961000000     1.283000000
C    -5.486000000    -1.074000000     0.716000000
H    -6.186000000    -1.674000000     0.130000000
C    -4.951000000     0.082000000    -0.252000000
C    -4.864000000    -0.219000000    -1.624000000
H    -5.124000000    -1.195000000    -2.026000000
H    -6.081000000    -0.705000000     1.554000000
C    -3.890000000    -3.089000000     0.604000000
H    -4.246000000    -3.358000000    -0.387000000
C    -2.846000000    -3.860000000     1.174000000
C    -2.383000000    -5.016000000     0.439000000
H    -3.219000000    -5.411000000    -0.142000000
H    -2.106000000    -5.799000000     1.148000000
C    -1.285000000    -4.724000000    -0.572000000
C    -1.563000000    -4.406000000    -1.909000000
H    -2.598000000    -4.484000000    -2.230000000
C     0.070000000    -4.724000000    -0.178000000
C     0.992000000    -4.324000000    -1.125000000
H     2.037000000    -4.309000000    -0.827000000
C     0.683000000    -4.031000000    -2.475000000
O     1.614000000    -3.777000000    -3.383000000
C     1.790000000    -2.348000000    -3.672000000
C     3.206000000    -1.736000000    -3.413000000
C     3.554000000    -0.498000000    -3.875000000
H     2.815000000     0.070000000    -4.434000000
C     4.103000000    -2.380000000    -2.549000000
H     3.769000000    -3.260000000    -2.006000000
O     1.144000000    -2.026000000    -4.888000000
H     1.209000000    -1.771000000    -2.938000000
C    -0.639000000    -4.114000000    -2.895000000
C    -1.091000000    -3.753000000    -4.333000000
H    -2.038000000    -4.205000000    -4.636000000
H    -0.316000000    -4.045000000    -5.044000000
C    -1.275000000    -2.264000000    -4.369000000
C    -2.522000000    -1.658000000    -4.177000000
H    -3.321000000    -2.309000000    -3.831000000
C    -0.155000000    -1.484000000    -4.708000000
C    -0.288000000    -0.113000000    -4.763000000
H     0.556000000     0.542000000    -4.964000000
C    -1.462000000     0.492000000    -4.379000000
O    -1.656000000     1.894000000    -4.315000000
C    -1.750000000     2.534000000    -3.050000000
C    -0.878000000     3.813000000    -2.883000000
C    -0.019000000     4.156000000    -3.831000000
H     0.063000000     3.565000000    -4.739000000
C    -0.831000000     4.386000000    -1.616000000
H    -1.471000000     4.061000000    -0.800000000
O    -3.119000000     2.791000000    -2.717000000
H    -1.206000000     1.821000000    -2.413000000
C    -2.628000000    -0.272000000    -4.131000000
C    -3.980000000     0.343000000    -3.869000000
H    -4.737000000    -0.361000000    -4.223000000
H    -4.033000000     1.248000000    -4.478000000
C    -4.257000000     0.700000000    -2.469000000
C    -3.903000000     1.954000000    -1.950000000
C    -3.961000000     2.269000000    -0.576000000
H    -3.496000000     3.191000000    -0.236000000
C    -4.471000000     1.293000000     0.285000000
O    -4.380000000     1.485000000     1.673000000
C    -3.510000000     0.841000000     2.616000000
H    -2.622000000     0.550000000     2.035000000
C    -3.165000000     1.849000000     3.736000000
C    -2.706000000     1.430000000     4.987000000
H    -2.688000000     0.386000000     5.288000000
C    -3.035000000     3.204000000     3.383000000
H    -3.336000000     3.578000000     2.408000000
C    -2.496000000     4.099000000     4.216000000
O    -2.334000000     5.433000000     3.895000000
C    -2.063000000     3.683000000     5.488000000
H    -1.579000000     4.400000000     6.147000000
C    -2.166000000     2.341000000     5.857000000
O    -1.719000000     1.843000000     7.129000000
C    -0.832000000     0.720000000     7.193000000
C     0.142000000     0.434000000     6.168000000
H     0.173000000     1.087000000     5.300000000
C    -0.806000000     0.004000000     8.387000000
H    -1.417000000     0.350000000     9.216000000
C     0.011000000    -1.082000000     8.533000000
H    -0.051000000    -1.634000000     9.467000000
C     1.024000000    -1.343000000     7.502000000
H     1.822000000    -2.049000000     7.719000000
C     1.043000000    -0.615000000     6.312000000
O     2.079000000    -0.654000000     5.443000000
C     2.179000000    -1.599000000     4.462000000
C     3.470000000    -2.077000000     4.228000000
H     4.333000000    -1.651000000     4.734000000
C     3.639000000    -3.155000000     3.347000000
O     4.854000000    -3.713000000     3.185000000
C     5.532000000    -3.917000000     1.978000000
C     5.549000000    -2.992000000     0.945000000
H     5.002000000    -2.053000000     0.987000000
C     6.199000000    -5.132000000     1.814000000
H     6.181000000    -5.831000000     2.647000000
C     6.682000000    -5.436000000     0.536000000
H     7.110000000    -6.432000000     0.453000000
C     6.659000000    -4.593000000    -0.531000000
H     7.010000000    -4.850000000    -1.527000000
C     6.083000000    -3.307000000    -0.331000000
O     6.220000000    -2.247000000    -1.193000000
C     5.323000000    -1.756000000    -2.192000000
C     5.534000000    -0.436000000    -2.538000000
H     6.385000000     0.109000000    -2.136000000
C     4.630000000     0.177000000    -3.376000000
O     4.656000000     1.592000000    -3.486000000
C     4.073000000     2.331000000    -4.431000000
C     3.157000000     3.363000000    -4.040000000
H     2.827000000     3.319000000    -3.005000000
C     4.605000000     2.357000000    -5.726000000
H     5.241000000     1.559000000    -6.099000000
C     4.116000000     3.284000000    -6.626000000
H     4.598000000     3.372000000    -7.596000000
C     3.236000000     4.319000000    -6.213000000
H     2.854000000     4.983000000    -6.984000000
C     2.658000000     4.323000000    -4.934000000
O     1.853000000     5.329000000    -4.565000000
C     0.872000000     5.161000000    -3.585000000
C     0.985000000     5.833000000    -2.412000000
H     1.691000000     6.647000000    -2.274000000
C     0.107000000     5.440000000    -1.367000000
O     0.310000000     6.056000000    -0.133000000
C    -0.721000000     6.331000000     0.682000000
C    -1.688000000     7.087000000     0.135000000
H    -1.496000000     7.517000000    -0.845000000
C    -2.753000000     7.502000000     0.921000000
H    -3.451000000     8.190000000     0.451000000
C    -2.944000000     6.944000000     2.180000000
H    -3.866000000     7.173000000     2.709000000
C    -2.056000000     5.982000000     2.725000000
C    -0.881000000     5.738000000     1.999000000
H    -0.071000000     5.184000000     2.467000000
O     6.203000000     4.333000000     1.421000000
H     5.258000000     4.407000000     1.553000000
H     6.527000000     3.931000000     2.227000000
O     5.292000000     0.483000000     5.467000000
H     4.458000000     0.695000000     5.886000000
H     5.081000000     0.408000000     4.537000000
O     4.613000000     5.421000000     6.249000000
H     4.845000000     4.545000000     5.943000000
H     3.935000000     5.715000000     5.642000000
O     5.574000000     4.386000000    -2.107000000
H     6.487000000     4.430000000    -1.822000000
H     5.105000000     4.022000000    -1.356000000
O     7.663000000     1.889000000     2.847000000
H     8.544000000     1.842000000     2.476000000
H     7.706000000     1.347000000     3.635000000
O     2.622000000     2.246000000     6.292000000
H     3.074000000     3.073000000     6.128000000
H     2.533000000     1.845000000     5.427000000
O     4.877000000     7.066000000     0.602000000
H     4.559000000     7.900000000     0.947000000
H     4.255000000     6.417000000     0.932000000
O     3.950000000     2.403000000    -0.395000000
H     3.241000000     1.785000000    -0.573000000
H     4.631000000     1.874000000     0.021000000
O     4.278000000     7.241000000     3.713000000
H     4.731000000     8.031000000     3.419000000
H     4.980000000     6.630000000     3.934000000
O     2.229000000     5.234000000     4.560000000
H     2.370000000     4.345000000     4.236000000
H     2.526000000     5.799000000     3.847000000
O     1.120000000     3.117000000     8.729000000
H     1.618000000     2.507000000     8.184000000
H     0.215000000     3.015000000     8.436000000
O     8.206000000    -0.777000000     0.148000000
H     7.271000000    -0.838000000    -0.049000000
H     8.468000000    -1.676000000     0.343000000
O     7.730000000     5.489000000    -0.796000000
H     7.075000000     5.087000000    -0.226000000
H     7.628000000     6.430000000    -0.651000000
O     1.764000000     6.751000000     7.237000000
H     1.623000000     7.668000000     7.001000000
H     1.784000000     6.289000000     6.398000000
O     5.716000000     3.345000000     3.807000000
H     6.393000000     2.772000000     3.446000000
H     4.892000000     2.918000000     3.574000000
O     5.798000000     0.564000000     1.065000000
H     5.216000000     0.612000000     1.824000000
H     6.495000000     1.191000000     1.259000000
O     7.554000000     5.227000000     4.426000000
H     7.007000000     4.510000000     4.104000000
H     7.718000000     5.009000000     5.344000000
O     3.441000000     4.535000000     1.345000000
H     3.630000000     3.936000000     0.623000000
H     2.847000000     4.044000000     1.914000000
O     7.751000000    -0.208000000     4.645000000
H     7.745000000    -0.986000000     4.087000000
H     6.877000000    -0.186000000     5.035000000
