201
-1241.98295
C     3.592000000    -1.886000000     3.415000000
H     3.975000000    -2.790000000     2.951000000
C     2.282000000    -1.643000000     3.626000000
C     1.811000000    -0.548000000     4.324000000
H     0.736000000    -0.389000000     4.365000000
C     1.238000000    -2.649000000     3.057000000
O     1.741000000    -3.882000000     2.588000000
H     0.719000000    -2.252000000     2.173000000
O     0.131000000    -2.837000000     3.982000000
C    -1.148000000    -2.733000000     3.408000000
C    -1.961000000    -1.649000000     3.678000000
H    -1.569000000    -0.810000000     4.246000000
C    -3.140000000    -1.444000000     2.934000000
O    -3.757000000    -0.169000000     3.108000000
C    -3.507000000    -2.342000000     1.968000000
C    -4.757000000    -2.247000000     1.184000000
H    -5.159000000    -3.221000000     0.900000000
C    -4.589000000    -1.340000000    -0.069000000
C    -4.220000000    -1.962000000    -1.278000000
H    -4.088000000    -3.030000000    -1.433000000
H    -5.607000000    -1.837000000     1.734000000
C    -2.736000000    -3.442000000     1.773000000
H    -2.967000000    -4.221000000     1.051000000
C    -1.605000000    -3.657000000     2.522000000
C    -0.879000000    -4.910000000     2.234000000
H    -1.597000000    -5.709000000     2.038000000
H    -0.343000000    -5.194000000     3.143000000
C     0.176000000    -4.827000000     1.116000000
C    -0.228000000    -5.001000000    -0.212000000
H    -1.256000000    -5.331000000    -0.339000000
C     1.466000000    -4.310000000     1.340000000
C     2.406000000    -4.210000000     0.355000000
H     3.380000000    -3.733000000     0.443000000
C     1.953000000    -4.399000000    -0.910000000
O     2.778000000    -3.956000000    -1.856000000
C     2.483000000    -2.661000000    -2.378000000
C     3.690000000    -1.780000000    -2.412000000
C     3.711000000    -0.601000000    -3.199000000
H     2.844000000    -0.276000000    -3.768000000
C     4.849000000    -2.066000000    -1.659000000
H     4.973000000    -2.996000000    -1.110000000
O     1.914000000    -2.688000000    -3.727000000
H     1.789000000    -2.061000000    -1.770000000
C     0.641000000    -4.865000000    -1.244000000
C     0.151000000    -4.989000000    -2.696000000
H    -0.737000000    -5.618000000    -2.788000000
H     0.883000000    -5.532000000    -3.297000000
C    -0.275000000    -3.617000000    -3.287000000
C    -1.645000000    -3.304000000    -3.242000000
H    -2.378000000    -3.965000000    -2.787000000
C     0.544000000    -2.675000000    -3.812000000
C     0.049000000    -1.450000000    -4.220000000
H     0.731000000    -0.718000000    -4.645000000
C    -1.304000000    -1.111000000    -4.206000000
O    -1.714000000     0.230000000    -4.418000000
C    -2.169000000     1.055000000    -3.308000000
C    -1.686000000     2.474000000    -3.450000000
C    -0.413000000     2.613000000    -4.018000000
H     0.127000000     1.734000000    -4.360000000
C    -2.425000000     3.544000000    -2.895000000
H    -3.352000000     3.352000000    -2.361000000
O    -3.634000000     1.003000000    -3.339000000
H    -1.725000000     0.587000000    -2.417000000
C    -2.153000000    -2.157000000    -3.789000000
C    -3.643000000    -1.841000000    -3.759000000
H    -4.285000000    -2.709000000    -3.921000000
H    -3.840000000    -1.182000000    -4.607000000
C    -4.080000000    -1.194000000    -2.467000000
C    -4.172000000     0.185000000    -2.373000000
C    -4.525000000     0.761000000    -1.151000000
H    -4.657000000     1.808000000    -0.893000000
C    -4.692000000     0.030000000     0.002000000
O    -4.905000000     0.621000000     1.204000000
C    -3.764000000     0.772000000     2.064000000
H    -2.816000000     0.481000000     1.589000000
C    -3.598000000     2.208000000     2.658000000
C    -2.852000000     2.418000000     3.917000000
H    -2.272000000     1.605000000     4.347000000
C    -4.208000000     3.292000000     2.006000000
H    -4.769000000     3.195000000     1.079000000
C    -4.149000000     4.556000000     2.626000000
O    -4.621000000     5.653000000     1.908000000
C    -3.451000000     4.757000000     3.776000000
H    -3.407000000     5.767000000     4.175000000
C    -2.764000000     3.701000000     4.453000000
O    -2.049000000     3.909000000     5.624000000
C    -1.002000000     3.112000000     5.999000000
C     0.117000000     2.887000000     5.196000000
H     0.231000000     3.314000000     4.203000000
C    -1.066000000     2.569000000     7.321000000
H    -1.976000000     2.774000000     7.879000000
C    -0.082000000     1.674000000     7.749000000
H    -0.211000000     1.253000000     8.743000000
C     0.940000000     1.371000000     6.954000000
H     1.683000000     0.659000000     7.304000000
C     1.081000000     1.966000000     5.692000000
O     2.253000000     1.758000000     4.967000000
C     2.727000000     0.481000000     4.708000000
C     4.055000000     0.211000000     4.484000000
H     4.756000000     0.960000000     4.844000000
C     4.546000000    -0.902000000     3.819000000
O     5.907000000    -1.147000000     3.768000000
C     6.527000000    -1.856000000     2.742000000
C     6.266000000    -1.458000000     1.424000000
H     5.607000000    -0.598000000     1.327000000
C     7.476000000    -2.817000000     3.047000000
H     7.780000000    -3.054000000     4.063000000
C     8.134000000    -3.476000000     1.971000000
H     8.806000000    -4.308000000     2.167000000
C     7.866000000    -3.095000000     0.659000000
H     8.364000000    -3.586000000    -0.173000000
C     6.988000000    -2.072000000     0.370000000
O     7.008000000    -1.521000000    -0.835000000
C     5.890000000    -1.128000000    -1.511000000
C     5.862000000     0.065000000    -2.278000000
H     6.703000000     0.745000000    -2.176000000
C     4.764000000     0.324000000    -3.102000000
O     4.769000000     1.526000000    -3.755000000
C     3.848000000     1.884000000    -4.766000000
C     3.037000000     3.030000000    -4.611000000
H     2.991000000     3.549000000    -3.657000000
C     3.819000000     1.255000000    -6.018000000
H     4.546000000     0.491000000    -6.282000000
C     2.901000000     1.592000000    -6.961000000
H     2.880000000     1.004000000    -7.874000000
C     1.989000000     2.680000000    -6.774000000
H     1.218000000     2.919000000    -7.501000000
C     2.101000000     3.362000000    -5.569000000
O     1.051000000     4.222000000    -5.237000000
C     0.061000000     3.978000000    -4.287000000
C    -0.698000000     5.042000000    -3.738000000
H    -0.420000000     6.086000000    -3.862000000
C    -1.934000000     4.810000000    -3.100000000
O    -2.600000000     5.889000000    -2.500000000
C    -3.736000000     5.742000000    -1.674000000
C    -4.965000000     5.602000000    -2.287000000
H    -4.983000000     5.616000000    -3.373000000
C    -6.107000000     5.518000000    -1.479000000
H    -7.044000000     5.243000000    -1.955000000
C    -6.078000000     5.483000000    -0.077000000
H    -7.031000000     5.298000000     0.411000000
C    -4.797000000     5.596000000     0.537000000
C    -3.652000000     5.754000000    -0.271000000
H    -2.708000000     6.058000000     0.175000000
O     1.674000000     5.440000000     4.929000000
H     1.953000000     4.954000000     4.153000000
H     1.063000000     6.096000000     4.593000000
O     3.869000000     1.619000000    -0.234000000
H     2.920000000     1.741000000    -0.213000000
H     4.211000000     2.454000000    -0.554000000
O     3.824000000     8.321000000    -0.257000000
H     4.006000000     7.383000000    -0.321000000
H     2.949000000     8.370000000     0.127000000
O     1.938000000     5.435000000     7.676000000
H     2.249000000     5.257000000     6.789000000
H     1.561000000     6.314000000     7.626000000
O     1.043000000     8.430000000    -4.239000000
H     0.329000000     8.994000000    -4.536000000
H     0.845000000     8.255000000    -3.319000000
O     4.926000000     3.824000000    -1.599000000
H     5.712000000     4.272000000    -1.286000000
H     5.063000000     3.729000000    -2.541000000
O    -3.413000000     9.212000000     1.677000000
H    -2.598000000     8.716000000     1.600000000
H    -3.327000000     9.915000000     1.033000000
O     3.486000000     7.104000000     2.432000000
H     2.867000000     6.373000000     2.421000000
H     2.935000000     7.882000000     2.515000000
O     6.077000000     2.108000000     1.441000000
H     5.586000000     2.896000000     1.674000000
H     5.641000000     1.777000000     0.657000000
O     2.057000000     5.969000000    -1.601000000
H     1.795000000     5.183000000    -1.123000000
H     1.398000000     6.623000000    -1.367000000
O     1.219000000     8.249000000     0.914000000
H     0.936000000     7.390000000     1.228000000
H     0.964000000     8.854000000     1.610000000
O     5.007000000     4.736000000     2.270000000
H     4.299000000     5.370000000     2.156000000
H     5.132000000     4.684000000     3.217000000
O     3.622000000     7.095000000    -3.702000000
H     3.058000000     7.497000000    -4.363000000
H     3.028000000     6.560000000    -3.174000000
O     0.197000000     8.224000000    -1.717000000
H     0.422000000     8.719000000    -0.929000000
H    -0.760000000     8.188000000    -1.712000000
O     5.402000000     9.795000000     1.638000000
H     4.943000000     9.106000000     1.158000000
H     5.225000000    10.593000000     1.141000000
O    -0.657000000    10.130000000     2.674000000
H    -0.918000000     9.211000000     2.725000000
H    -0.107000000    10.266000000     3.446000000
O     3.141000000     9.951000000     3.347000000
H     3.378000000    10.637000000     3.971000000
H     3.903000000     9.877000000     2.772000000
O    -1.319000000     7.674000000     2.696000000
H    -0.884000000     7.079000000     2.086000000
H    -1.043000000     7.375000000     3.562000000
O     0.084000000     7.535000000     4.958000000
H     0.632000000     8.078000000     5.525000000
H    -0.594000000     7.190000000     5.539000000
