201
-1231.84902
C     3.959000000    -2.141000000     2.999000000
H     4.073000000    -2.889000000     2.219000000
C     2.647000000    -1.966000000     3.480000000
C     2.413000000    -0.952000000     4.422000000
H     1.429000000    -0.799000000     4.859000000
C     1.527000000    -2.820000000     2.908000000
O     1.946000000    -4.074000000     2.226000000
H     1.051000000    -2.171000000     2.159000000
O     0.533000000    -3.122000000     3.926000000
C    -0.720000000    -2.931000000     3.458000000
C    -1.402000000    -1.777000000     3.882000000
H    -0.960000000    -1.065000000     4.575000000
C    -2.721000000    -1.538000000     3.422000000
O    -3.340000000    -0.335000000     3.816000000
C    -3.395000000    -2.390000000     2.544000000
C    -4.722000000    -2.216000000     1.976000000
H    -5.092000000    -3.189000000     1.647000000
C    -4.692000000    -1.293000000     0.726000000
C    -4.636000000    -1.911000000    -0.514000000
H    -4.621000000    -2.986000000    -0.674000000
H    -5.387000000    -1.745000000     2.704000000
C    -2.646000000    -3.504000000     2.069000000
H    -3.019000000    -4.117000000     1.253000000
C    -1.321000000    -3.759000000     2.503000000
C    -0.672000000    -4.972000000     2.014000000
H    -1.438000000    -5.720000000     1.797000000
H    -0.056000000    -5.449000000     2.779000000
C     0.150000000    -4.696000000     0.780000000
C    -0.464000000    -4.874000000    -0.448000000
H    -1.463000000    -5.291000000    -0.547000000
C     1.489000000    -4.332000000     0.959000000
C     2.287000000    -4.124000000    -0.174000000
H     3.336000000    -3.849000000    -0.094000000
C     1.735000000    -4.216000000    -1.425000000
O     2.456000000    -3.827000000    -2.476000000
C     2.138000000    -2.520000000    -2.923000000
C     3.380000000    -1.738000000    -3.242000000
C     3.261000000    -0.653000000    -4.143000000
H     2.334000000    -0.488000000    -4.688000000
C     4.530000000    -1.804000000    -2.448000000
H     4.577000000    -2.511000000    -1.624000000
O     1.204000000    -2.688000000    -4.053000000
H     1.664000000    -1.900000000    -2.148000000
C     0.370000000    -4.609000000    -1.566000000
C    -0.306000000    -4.761000000    -2.894000000
H    -0.991000000    -5.605000000    -2.790000000
H     0.369000000    -5.135000000    -3.666000000
C    -0.907000000    -3.451000000    -3.335000000
C    -2.292000000    -3.246000000    -3.188000000
H    -2.873000000    -4.011000000    -2.680000000
C    -0.118000000    -2.410000000    -3.846000000
C    -0.740000000    -1.227000000    -4.234000000
H    -0.159000000    -0.381000000    -4.593000000
C    -2.086000000    -1.004000000    -3.923000000
O    -2.619000000     0.280000000    -4.252000000
C    -2.741000000     1.146000000    -3.044000000
C    -2.191000000     2.535000000    -3.207000000
C    -1.049000000     2.789000000    -4.006000000
H    -0.569000000     1.886000000    -4.376000000
C    -2.639000000     3.630000000    -2.442000000
H    -3.513000000     3.546000000    -1.802000000
O    -4.141000000     1.100000000    -2.549000000
H    -2.100000000     0.727000000    -2.254000000
C    -2.880000000    -2.045000000    -3.455000000
C    -4.251000000    -1.702000000    -2.990000000
H    -4.797000000    -2.647000000    -3.022000000
H    -4.735000000    -1.085000000    -3.750000000
C    -4.483000000    -1.065000000    -1.661000000
C    -4.480000000     0.319000000    -1.460000000
C    -4.584000000     0.855000000    -0.234000000
H    -4.560000000     1.922000000    -0.026000000
C    -4.757000000     0.072000000     0.850000000
O    -4.789000000     0.701000000     2.071000000
C    -3.539000000     0.725000000     2.803000000
H    -2.710000000     0.461000000     2.130000000
C    -3.232000000     2.094000000     3.458000000
C    -2.231000000     2.187000000     4.428000000
H    -1.743000000     1.294000000     4.809000000
C    -3.834000000     3.255000000     3.012000000
H    -4.573000000     3.186000000     2.218000000
C    -3.246000000     4.475000000     3.279000000
O    -3.761000000     5.581000000     2.702000000
C    -2.214000000     4.577000000     4.213000000
H    -1.694000000     5.506000000     4.429000000
C    -1.683000000     3.387000000     4.784000000
O    -0.666000000     3.556000000     5.658000000
C     0.156000000     2.625000000     6.230000000
C     1.275000000     2.238000000     5.513000000
H     1.609000000     2.570000000     4.533000000
C     0.024000000     2.422000000     7.589000000
H    -0.807000000     2.851000000     8.142000000
C     0.930000000     1.648000000     8.301000000
H     0.849000000     1.410000000     9.358000000
C     1.975000000     1.072000000     7.537000000
H     2.680000000     0.423000000     8.051000000
C     2.196000000     1.363000000     6.158000000
O     3.382000000     0.990000000     5.511000000
C     3.485000000    -0.099000000     4.671000000
C     4.742000000    -0.318000000     4.188000000
H     5.618000000     0.226000000     4.531000000
C     5.074000000    -1.384000000     3.309000000
O     6.341000000    -1.564000000     2.808000000
C     6.593000000    -2.052000000     1.568000000
C     6.548000000    -1.233000000     0.411000000
H     6.297000000    -0.185000000     0.549000000
C     6.815000000    -3.467000000     1.398000000
H     6.683000000    -4.184000000     2.204000000
C     6.965000000    -4.012000000     0.048000000
H     6.960000000    -5.097000000    -0.006000000
C     7.027000000    -3.117000000    -1.015000000
H     7.144000000    -3.620000000    -1.971000000
C     6.812000000    -1.735000000    -0.852000000
O     6.764000000    -0.967000000    -1.922000000
C     5.597000000    -0.925000000    -2.696000000
C     5.565000000    -0.039000000    -3.758000000
H     6.444000000     0.569000000    -3.959000000
C     4.409000000     0.193000000    -4.433000000
O     4.367000000     1.212000000    -5.345000000
C     3.283000000     1.866000000    -5.844000000
C     2.475000000     2.672000000    -5.008000000
H     2.636000000     2.670000000    -3.934000000
C     3.168000000     1.953000000    -7.265000000
H     3.775000000     1.411000000    -7.985000000
C     2.101000000     2.739000000    -7.814000000
H     2.069000000     2.957000000    -8.878000000
C     1.183000000     3.338000000    -6.909000000
H     0.363000000     3.945000000    -7.283000000
C     1.418000000     3.348000000    -5.568000000
O     0.705000000     4.199000000    -4.740000000
C    -0.394000000     3.987000000    -4.035000000
C    -1.014000000     5.070000000    -3.443000000
H    -0.577000000     6.063000000    -3.369000000
C    -2.100000000     4.883000000    -2.638000000
O    -2.606000000     6.028000000    -1.941000000
C    -3.585000000     5.880000000    -1.001000000
C    -4.928000000     6.087000000    -1.268000000
H    -5.290000000     6.206000000    -2.286000000
C    -5.884000000     6.031000000    -0.270000000
H    -6.906000000     6.267000000    -0.554000000
C    -5.503000000     5.668000000     1.066000000
H    -6.143000000     5.743000000     1.941000000
C    -4.122000000     5.646000000     1.387000000
C    -3.198000000     5.712000000     0.348000000
H    -2.126000000     5.690000000     0.523000000
O     2.544000000     6.092000000     4.100000000
H     2.583000000     5.368000000     3.476000000
H     1.737000000     6.557000000     3.876000000
O    -0.464000000     6.199000000     7.971000000
H    -0.267000000     6.517000000     7.090000000
H     0.393000000     6.028000000     8.362000000
O     6.999000000     2.198000000     3.907000000
H     7.588000000     2.678000000     3.325000000
H     6.132000000     2.315000000     3.519000000
O     5.488000000     2.261000000    -0.317000000
H     6.042000000     2.410000000    -1.083000000
H     4.671000000     2.716000000    -0.519000000
O     3.653000000     6.814000000     6.665000000
H     3.220000000     6.527000000     5.862000000
H     3.712000000     7.766000000     6.579000000
O     5.619000000     8.266000000     3.965000000
H     4.743000000     8.650000000     3.919000000
H     5.558000000     7.469000000     3.438000000
O     2.976000000     9.528000000     2.982000000
H     3.383000000     9.033000000     2.271000000
H     2.038000000     9.378000000     2.871000000
O     5.482000000     6.001000000     2.544000000
H     4.955000000     6.090000000     1.750000000
H     5.981000000     5.194000000     2.412000000
O    -1.244000000     8.304000000     0.893000000
H    -2.149000000     8.176000000     0.612000000
H    -1.258000000     9.127000000     1.382000000
O     0.537000000     6.610000000    -0.749000000
H     0.589000000     5.773000000    -0.287000000
H    -0.135000000     7.102000000    -0.276000000
O     3.303000000     3.623000000    -1.154000000
H     3.138000000     4.348000000    -0.552000000
H     3.139000000     3.991000000    -2.023000000
O     5.435000000     5.200000000     5.629000000
H     4.776000000     5.806000000     5.969000000
H     5.257000000     5.155000000     4.690000000
O     4.699000000     3.142000000     2.652000000
H     3.966000000     3.751000000     2.745000000
H     4.663000000     2.862000000     1.738000000
O     2.384000000     6.567000000    -2.895000000
H     1.781000000     6.131000000    -2.292000000
H     1.879000000     7.297000000    -3.252000000
O     2.975000000     9.104000000    -0.546000000
H     2.193000000     8.697000000    -0.918000000
H     3.301000000     9.677000000    -1.241000000
O     6.251000000     7.149000000    -0.934000000
H     6.279000000     7.961000000    -0.430000000
H     5.461000000     6.703000000    -0.629000000
O     3.461000000     5.989000000     0.573000000
H     2.937000000     6.613000000     0.070000000
H     2.838000000     5.586000000     1.178000000
O     0.344000000     7.181000000     2.822000000
H     0.587000000     6.371000000     2.371000000
H    -0.242000000     7.628000000     2.211000000
O    -0.514000000     7.398000000     5.504000000
H    -0.332000000     7.377000000     4.565000000
H    -0.292000000     8.291000000     5.771000000
