201
-1243.27326
C     3.930000000    -1.738000000     3.086000000
H     4.375000000    -2.207000000     2.212000000
C     2.620000000    -1.877000000     3.447000000
C     2.090000000    -1.072000000     4.435000000
H     1.053000000    -1.202000000     4.731000000
C     1.824000000    -2.856000000     2.614000000
O     2.687000000    -3.891000000     1.914000000
H     1.322000000    -2.268000000     1.832000000
O     0.726000000    -3.421000000     3.405000000
C    -0.551000000    -3.490000000     2.809000000
C    -1.504000000    -2.581000000     3.261000000
H    -1.238000000    -1.832000000     4.002000000
C    -2.706000000    -2.451000000     2.611000000
O    -3.624000000    -1.477000000     2.972000000
C    -2.964000000    -3.320000000     1.508000000
C    -4.290000000    -3.237000000     0.847000000
H    -4.529000000    -4.227000000     0.452000000
C    -4.360000000    -2.219000000    -0.275000000
C    -4.040000000    -2.708000000    -1.592000000
H    -3.825000000    -3.758000000    -1.775000000
H    -5.046000000    -3.091000000     1.622000000
C    -2.063000000    -4.248000000     1.086000000
H    -2.340000000    -4.903000000     0.264000000
C    -0.832000000    -4.401000000     1.731000000
C     0.229000000    -5.390000000     1.272000000
H    -0.259000000    -6.299000000     0.912000000
H     0.834000000    -5.738000000     2.112000000
C     1.122000000    -4.715000000     0.212000000
C     0.711000000    -4.833000000    -1.103000000
H    -0.334000000    -5.089000000    -1.259000000
C     2.338000000    -4.067000000     0.592000000
C     3.028000000    -3.508000000    -0.486000000
H     3.926000000    -2.922000000    -0.309000000
C     2.633000000    -3.590000000    -1.819000000
O     3.269000000    -2.856000000    -2.802000000
C     2.572000000    -1.624000000    -2.919000000
C     3.551000000    -0.442000000    -2.631000000
C     3.226000000     0.881000000    -3.056000000
H     2.288000000     1.029000000    -3.585000000
C     4.734000000    -0.582000000    -1.866000000
H     4.867000000    -1.585000000    -1.470000000
O     2.015000000    -1.519000000    -4.268000000
H     1.701000000    -1.653000000    -2.248000000
C     1.465000000    -4.230000000    -2.102000000
C     0.928000000    -4.249000000    -3.524000000
H     0.276000000    -5.115000000    -3.654000000
H     1.816000000    -4.381000000    -4.145000000
C     0.075000000    -3.009000000    -3.925000000
C    -1.282000000    -3.107000000    -3.691000000
H    -1.724000000    -4.005000000    -3.268000000
C     0.651000000    -1.760000000    -4.301000000
C    -0.158000000    -0.682000000    -4.645000000
H     0.226000000     0.323000000    -4.799000000
C    -1.578000000    -0.816000000    -4.519000000
O    -2.319000000     0.406000000    -4.616000000
C    -2.863000000     1.055000000    -3.467000000
C    -2.689000000     2.571000000    -3.603000000
C    -1.643000000     3.183000000    -4.307000000
H    -0.899000000     2.598000000    -4.840000000
C    -3.622000000     3.396000000    -2.956000000
H    -4.466000000     2.981000000    -2.411000000
O    -4.216000000     0.640000000    -3.161000000
H    -2.256000000     0.813000000    -2.582000000
C    -2.139000000    -2.009000000    -4.049000000
C    -3.646000000    -2.177000000    -3.983000000
H    -3.844000000    -3.248000000    -4.070000000
H    -4.156000000    -1.619000000    -4.771000000
C    -4.045000000    -1.729000000    -2.572000000
C    -4.353000000    -0.358000000    -2.280000000
C    -4.727000000     0.030000000    -1.025000000
H    -4.829000000     1.096000000    -0.839000000
C    -4.759000000    -0.891000000    -0.032000000
O    -4.807000000    -0.358000000     1.228000000
C    -3.640000000    -0.315000000     2.037000000
H    -2.801000000    -0.555000000     1.367000000
C    -3.303000000     0.999000000     2.859000000
C    -2.888000000     0.947000000     4.200000000
H    -2.762000000     0.000000000     4.719000000
C    -3.330000000     2.221000000     2.216000000
H    -3.621000000     2.284000000     1.171000000
C    -3.077000000     3.398000000     2.949000000
O    -3.033000000     4.568000000     2.259000000
C    -2.681000000     3.368000000     4.256000000
H    -2.387000000     4.307000000     4.718000000
C    -2.520000000     2.120000000     4.833000000
O    -2.156000000     2.029000000     6.148000000
C    -1.174000000     1.241000000     6.677000000
C     0.102000000     1.392000000     6.136000000
H     0.311000000     2.035000000     5.286000000
C    -1.401000000     0.567000000     7.851000000
H    -2.413000000     0.398000000     8.207000000
C    -0.283000000    -0.227000000     8.294000000
H    -0.608000000    -0.923000000     9.063000000
C     0.980000000    -0.172000000     7.790000000
H     1.673000000    -0.883000000     8.234000000
C     1.202000000     0.606000000     6.623000000
O     2.420000000     0.643000000     6.079000000
C     2.922000000    -0.228000000     5.121000000
C     4.293000000    -0.300000000     4.896000000
H     4.996000000     0.336000000     5.429000000
C     4.835000000    -1.041000000     3.856000000
O     6.263000000    -1.108000000     3.594000000
C     6.795000000    -1.145000000     2.315000000
C     6.650000000    -0.171000000     1.326000000
H     6.092000000     0.730000000     1.568000000
C     7.460000000    -2.312000000     2.060000000
H     7.529000000    -3.075000000     2.831000000
C     8.029000000    -2.477000000     0.805000000
H     8.677000000    -3.342000000     0.687000000
C     7.864000000    -1.563000000    -0.187000000
H     8.108000000    -1.751000000    -1.229000000
C     7.093000000    -0.412000000     0.091000000
O     6.767000000     0.469000000    -0.916000000
C     5.525000000     0.540000000    -1.639000000
C     5.116000000     1.814000000    -1.960000000
H     5.708000000     2.666000000    -1.638000000
C     3.934000000     2.001000000    -2.669000000
O     3.556000000     3.287000000    -3.004000000
C     2.825000000     3.640000000    -4.129000000
C     1.507000000     4.060000000    -4.016000000
H     1.034000000     4.045000000    -3.038000000
C     3.373000000     3.667000000    -5.454000000
H     4.433000000     3.431000000    -5.490000000
C     2.647000000     4.047000000    -6.608000000
H     3.139000000     4.006000000    -7.577000000
C     1.397000000     4.544000000    -6.420000000
H     0.888000000     4.979000000    -7.276000000
C     0.824000000     4.629000000    -5.109000000
O    -0.392000000     5.189000000    -4.904000000
C    -1.466000000     4.573000000    -4.340000000
C    -2.331000000     5.383000000    -3.636000000
H    -2.071000000     6.439000000    -3.645000000
C    -3.426000000     4.800000000    -2.948000000
O    -4.260000000     5.550000000    -2.140000000
C    -4.650000000     5.261000000    -0.850000000
C    -6.013000000     5.329000000    -0.438000000
H    -6.823000000     5.542000000    -1.131000000
C    -6.335000000     5.322000000     0.923000000
H    -7.379000000     5.368000000     1.222000000
C    -5.377000000     5.013000000     1.896000000
H    -5.612000000     4.887000000     2.950000000
C    -4.043000000     4.865000000     1.401000000
C    -3.682000000     5.048000000     0.063000000
H    -2.641000000     5.002000000    -0.247000000
O    -0.418000000     7.723000000     5.921000000
H    -0.335000000     8.650000000     6.144000000
H     0.484000000     7.418000000     5.825000000
O     4.851000000     3.204000000     6.885000000
H     5.253000000     3.414000000     6.042000000
H     5.116000000     3.921000000     7.462000000
O     0.087000000     5.847000000     2.887000000
H     0.998000000     6.082000000     2.713000000
H     0.106000000     4.899000000     3.025000000
O     4.671000000     7.042000000     3.762000000
H     4.232000000     6.222000000     3.989000000
H     4.145000000     7.406000000     3.050000000
O     2.032000000     8.588000000     3.883000000
H     1.950000000     7.943000000     3.180000000
H     2.430000000     9.351000000     3.463000000
O     6.752000000     6.185000000    -0.030000000
H     7.549000000     5.949000000    -0.504000000
H     6.073000000     5.629000000    -0.412000000
O     0.619000000     9.160000000     0.083000000
H     0.135000000     8.351000000     0.251000000
H    -0.060000000     9.826000000    -0.028000000
O     6.180000000     2.808000000     4.449000000
H     5.785000000     2.993000000     3.596000000
H     6.958000000     3.365000000     4.478000000
O     7.282000000     6.751000000     2.703000000
H     7.094000000     6.459000000     1.812000000
H     6.425000000     6.963000000     3.072000000
O     0.161000000     5.918000000    -1.066000000
H     0.802000000     5.442000000    -0.538000000
H     0.654000000     6.220000000    -1.829000000
O     4.812000000     3.071000000     1.916000000
H     5.178000000     3.271000000     1.054000000
H     3.865000000     3.128000000     1.793000000
O     2.296000000     6.950000000     1.608000000
H     1.927000000     7.384000000     0.838000000
H     2.238000000     6.016000000     1.406000000
O     3.284000000     4.826000000     4.566000000
H     2.782000000     4.439000000     3.849000000
H     2.911000000     4.436000000     5.357000000
O     4.240000000     4.622000000    -0.700000000
H     4.016000000     3.943000000    -1.336000000
H     3.413000000     4.821000000    -0.262000000
O     2.036000000     6.979000000    -2.821000000
H     2.683000000     6.862000000    -3.517000000
H     2.450000000     7.588000000    -2.209000000
O     3.852000000     9.695000000     2.018000000
H     4.756000000     9.837000000     2.296000000
H     3.905000000     9.600000000     1.067000000
O    -0.485000000    10.283000000     3.320000000
H    -0.239000000     9.369000000     3.180000000
H    -0.669000000    10.342000000     4.257000000
O    -2.674000000     7.306000000     4.085000000
H    -1.927000000     7.338000000     4.682000000
H    -2.443000000     6.632000000     3.447000000
O    -1.356000000     7.280000000     0.790000000
H    -1.034000000     6.726000000     1.501000000
H    -1.051000000     6.847000000    -0.008000000
