201
-1246.02315
C     3.677000000    -2.026000000     3.528000000
H     4.155000000    -2.909000000     3.112000000
C     2.304000000    -1.813000000     3.691000000
C     1.849000000    -0.710000000     4.409000000
H     0.789000000    -0.641000000     4.640000000
C     1.341000000    -2.766000000     2.974000000
O     1.939000000    -4.045000000     2.535000000
H     0.936000000    -2.189000000     2.130000000
O     0.246000000    -3.102000000     3.792000000
C    -1.048000000    -3.033000000     3.320000000
C    -1.822000000    -1.927000000     3.475000000
H    -1.282000000    -1.130000000     3.980000000
C    -3.036000000    -1.732000000     2.931000000
O    -3.706000000    -0.510000000     3.166000000
C    -3.516000000    -2.663000000     2.030000000
C    -4.906000000    -2.428000000     1.375000000
H    -5.287000000    -3.382000000     1.006000000
C    -4.764000000    -1.559000000     0.143000000
C    -4.416000000    -2.206000000    -1.031000000
H    -4.290000000    -3.285000000    -1.011000000
H    -5.565000000    -1.946000000     2.101000000
C    -2.681000000    -3.750000000     1.673000000
H    -3.002000000    -4.435000000     0.892000000
C    -1.494000000    -3.957000000     2.334000000
C    -0.578000000    -5.157000000     2.072000000
H    -1.180000000    -6.038000000     1.842000000
H    -0.060000000    -5.537000000     2.954000000
C     0.419000000    -4.882000000     0.926000000
C     0.042000000    -5.075000000    -0.394000000
H    -0.952000000    -5.399000000    -0.693000000
C     1.657000000    -4.349000000     1.230000000
C     2.489000000    -3.830000000     0.242000000
H     3.474000000    -3.421000000     0.451000000
C     2.137000000    -4.011000000    -1.052000000
O     2.900000000    -3.383000000    -2.043000000
C     2.468000000    -2.118000000    -2.479000000
C     3.609000000    -1.078000000    -2.582000000
C     3.485000000     0.091000000    -3.339000000
H     2.634000000     0.240000000    -3.999000000
C     4.706000000    -1.245000000    -1.705000000
H     4.884000000    -2.107000000    -1.067000000
O     1.793000000    -2.316000000    -3.782000000
H     1.842000000    -1.650000000    -1.705000000
C     0.913000000    -4.570000000    -1.366000000
C     0.527000000    -4.680000000    -2.849000000
H    -0.034000000    -5.603000000    -3.010000000
H     1.428000000    -4.791000000    -3.458000000
C    -0.282000000    -3.397000000    -3.248000000
C    -1.650000000    -3.385000000    -3.233000000
H    -2.183000000    -4.265000000    -2.882000000
C     0.421000000    -2.343000000    -3.810000000
C    -0.226000000    -1.184000000    -4.223000000
H     0.265000000    -0.288000000    -4.594000000
C    -1.599000000    -1.157000000    -4.148000000
O    -2.156000000     0.042000000    -4.584000000
C    -2.569000000     1.029000000    -3.618000000
C    -2.134000000     2.430000000    -3.914000000
C    -1.118000000     2.766000000    -4.771000000
H    -0.741000000     2.038000000    -5.486000000
C    -2.691000000     3.422000000    -3.133000000
H    -3.486000000     3.153000000    -2.442000000
O    -3.947000000     0.844000000    -3.171000000
H    -1.930000000     0.761000000    -2.764000000
C    -2.327000000    -2.218000000    -3.622000000
C    -3.859000000    -2.122000000    -3.547000000
H    -4.385000000    -3.080000000    -3.548000000
H    -4.283000000    -1.453000000    -4.298000000
C    -4.246000000    -1.457000000    -2.176000000
C    -4.301000000    -0.032000000    -2.111000000
C    -4.494000000     0.613000000    -0.918000000
H    -4.540000000     1.689000000    -0.771000000
C    -4.698000000    -0.146000000     0.235000000
O    -4.830000000     0.486000000     1.421000000
C    -3.603000000     0.518000000     2.183000000
H    -2.737000000     0.201000000     1.583000000
C    -3.356000000     1.864000000     2.834000000
C    -2.774000000     1.970000000     4.041000000
H    -2.472000000     1.070000000     4.570000000
C    -3.724000000     3.058000000     2.122000000
H    -4.217000000     2.991000000     1.155000000
C    -3.375000000     4.307000000     2.680000000
O    -3.643000000     5.513000000     2.056000000
C    -2.822000000     4.375000000     3.947000000
H    -2.686000000     5.349000000     4.410000000
C    -2.500000000     3.164000000     4.660000000
O    -2.003000000     3.277000000     5.996000000
C    -0.892000000     2.498000000     6.494000000
C     0.257000000     2.312000000     5.697000000
H     0.127000000     2.663000000     4.677000000
C    -0.963000000     2.047000000     7.790000000
H    -1.828000000     2.295000000     8.400000000
C     0.232000000     1.611000000     8.323000000
H     0.301000000     1.385000000     9.384000000
C     1.371000000     1.340000000     7.526000000
H     2.257000000     0.841000000     7.910000000
C     1.343000000     1.665000000     6.174000000
O     2.418000000     1.539000000     5.309000000
C     2.733000000     0.321000000     4.728000000
C     4.133000000     0.142000000     4.422000000
H     4.787000000     0.995000000     4.579000000
C     4.583000000    -1.070000000     3.918000000
O     5.944000000    -1.436000000     3.783000000
C     6.487000000    -1.798000000     2.591000000
C     6.275000000    -0.982000000     1.444000000
H     5.628000000    -0.110000000     1.497000000
C     7.323000000    -2.963000000     2.494000000
H     7.457000000    -3.639000000     3.334000000
C     8.051000000    -3.212000000     1.305000000
H     8.712000000    -4.072000000     1.236000000
C     7.943000000    -2.282000000     0.235000000
H     8.492000000    -2.483000000    -0.682000000
C     6.973000000    -1.258000000     0.277000000
O     6.867000000    -0.486000000    -0.860000000
C     5.808000000    -0.398000000    -1.780000000
C     5.675000000     0.701000000    -2.540000000
H     6.449000000     1.460000000    -2.453000000
C     4.587000000     0.966000000    -3.382000000
O     4.412000000     2.168000000    -4.020000000
C     3.423000000     2.271000000    -4.983000000
C     2.480000000     3.324000000    -4.883000000
H     2.544000000     4.000000000    -4.034000000
C     3.457000000     1.444000000    -6.110000000
H     4.195000000     0.649000000    -6.182000000
C     2.406000000     1.554000000    -7.044000000
H     2.461000000     0.882000000    -7.896000000
C     1.447000000     2.553000000    -6.938000000
H     0.675000000     2.730000000    -7.683000000
C     1.515000000     3.428000000    -5.902000000
O     0.496000000     4.317000000    -5.711000000
C    -0.571000000     3.991000000    -4.835000000
C    -1.185000000     4.964000000    -4.126000000
H    -0.874000000     6.002000000    -4.210000000
C    -2.259000000     4.721000000    -3.254000000
O    -2.779000000     5.703000000    -2.527000000
C    -3.707000000     5.532000000    -1.608000000
C    -5.072000000     5.583000000    -1.835000000
H    -5.443000000     5.514000000    -2.854000000
C    -6.006000000     5.561000000    -0.757000000
H    -7.078000000     5.680000000    -0.891000000
C    -5.495000000     5.557000000     0.540000000
H    -6.175000000     5.499000000     1.386000000
C    -4.112000000     5.488000000     0.766000000
C    -3.250000000     5.430000000    -0.313000000
H    -2.173000000     5.476000000    -0.176000000
O     1.520000000     5.222000000     4.756000000
H     1.776000000     4.680000000     4.009000000
H     0.937000000     5.883000000     4.384000000
O    -1.341000000     5.766000000     7.634000000
H    -1.223000000     6.519000000     7.055000000
H    -1.052000000     5.017000000     7.113000000
O     7.258000000     2.958000000     3.288000000
H     7.153000000     3.909000000     3.294000000
H     6.392000000     2.623000000     3.055000000
O     5.020000000     2.675000000     0.132000000
H     5.522000000     2.449000000    -0.652000000
H     4.597000000     3.505000000    -0.086000000
O     3.196000000     5.028000000     7.251000000
H     2.529000000     4.630000000     6.691000000
H     3.165000000     5.960000000     7.035000000
O     5.913000000     4.023000000    -2.208000000
H     5.306000000     4.741000000    -2.389000000
H     6.068000000     3.620000000    -3.062000000
O     6.961000000     5.858000000     2.944000000
H     7.212000000     6.546000000     2.328000000
H     6.090000000     6.114000000     3.247000000
O     4.673000000     6.140000000     4.496000000
H     4.153000000     6.938000000     4.404000000
H     4.038000000     5.429000000     4.410000000
O     5.928000000     6.682000000    -0.703000000
H     5.435000000     6.044000000    -0.186000000
H     6.412000000     7.192000000    -0.054000000
O    -2.255000000     9.118000000     2.612000000
H    -2.319000000     9.420000000     1.706000000
H    -1.552000000     9.646000000     2.991000000
O     0.732000000     5.506000000    -0.938000000
H     1.261000000     6.220000000    -0.581000000
H     0.413000000     5.036000000    -0.167000000
O     3.637000000     5.269000000     0.676000000
H     3.001000000     4.745000000     1.164000000
H     3.339000000     6.172000000     0.787000000
O     4.264000000     3.265000000     3.033000000
H     3.363000000     3.586000000     3.070000000
H     4.360000000     2.923000000     2.144000000
O     1.031000000     7.625000000    -2.609000000
H     0.836000000     6.824000000    -2.122000000
H     0.363000000     7.657000000    -3.293000000
O     2.146000000     9.790000000    -1.301000000
H     1.590000000     9.123000000    -1.704000000
H     1.531000000    10.396000000    -0.886000000
O     2.785000000     7.716000000     1.085000000
H     2.912000000     8.524000000     0.588000000
H     2.739000000     8.000000000     1.998000000
O     2.655000000     8.259000000     3.911000000
H     2.545000000     8.929000000     4.586000000
H     1.778000000     7.899000000     3.786000000
O     0.115000000     7.155000000     3.147000000
H     0.437000000     6.594000000     2.441000000
H    -0.603000000     7.649000000     2.753000000
O    -1.843000000     7.880000000     5.256000000
H    -0.936000000     7.827000000     4.953000000
H    -2.355000000     8.008000000     4.458000000
