201
-1233.32772
C     4.644000000    -1.387000000     2.382000000
H     4.889000000    -1.994000000     1.514000000
C     3.500000000    -1.688000000     3.056000000
C     3.132000000    -0.929000000     4.180000000
H     2.148000000    -1.166000000     4.578000000
C     2.496000000    -2.636000000     2.460000000
O     3.099000000    -3.598000000     1.572000000
H     1.938000000    -1.964000000     1.792000000
O     1.563000000    -3.267000000     3.450000000
C     0.175000000    -3.344000000     3.165000000
C    -0.706000000    -2.496000000     3.877000000
H    -0.437000000    -1.889000000     4.738000000
C    -2.034000000    -2.418000000     3.304000000
O    -2.837000000    -1.449000000     3.874000000
C    -2.488000000    -3.325000000     2.330000000
C    -3.966000000    -3.425000000     1.990000000
H    -4.254000000    -4.404000000     1.601000000
C    -4.385000000    -2.423000000     0.929000000
C    -4.389000000    -2.814000000    -0.416000000
H    -4.158000000    -3.857000000    -0.617000000
H    -4.446000000    -3.322000000     2.965000000
C    -1.597000000    -4.241000000     1.778000000
H    -1.949000000    -5.043000000     1.134000000
C    -0.231000000    -4.292000000     2.143000000
C     0.714000000    -5.287000000     1.476000000
H     0.205000000    -6.199000000     1.157000000
H     1.450000000    -5.591000000     2.224000000
C     1.355000000    -4.724000000     0.263000000
C     0.773000000    -4.889000000    -0.985000000
H    -0.137000000    -5.483000000    -1.014000000
C     2.516000000    -3.902000000     0.313000000
C     3.052000000    -3.274000000    -0.781000000
H     3.852000000    -2.565000000    -0.583000000
C     2.444000000    -3.461000000    -2.008000000
O     2.868000000    -2.697000000    -3.063000000
C     2.164000000    -1.464000000    -3.234000000
C     3.155000000    -0.322000000    -3.349000000
C     2.730000000     0.857000000    -3.969000000
H     1.685000000     0.912000000    -4.260000000
C     4.442000000    -0.341000000    -2.843000000
H     4.785000000    -1.257000000    -2.370000000
O     1.228000000    -1.547000000    -4.353000000
H     1.519000000    -1.223000000    -2.377000000
C     1.312000000    -4.292000000    -2.112000000
C     0.548000000    -4.264000000    -3.424000000
H    -0.044000000    -5.171000000    -3.563000000
H     1.315000000    -4.163000000    -4.194000000
C    -0.451000000    -3.099000000    -3.543000000
C    -1.764000000    -3.289000000    -3.222000000
H    -2.116000000    -4.254000000    -2.868000000
C    -0.063000000    -1.860000000    -4.040000000
C    -0.998000000    -0.827000000    -4.248000000
H    -0.613000000     0.077000000    -4.713000000
C    -2.300000000    -1.054000000    -3.897000000
O    -3.125000000     0.030000000    -4.031000000
C    -3.314000000     0.736000000    -2.771000000
C    -3.127000000     2.220000000    -3.018000000
C    -2.401000000     2.744000000    -4.086000000
H    -2.084000000     2.042000000    -4.853000000
C    -3.455000000     3.070000000    -1.926000000
H    -4.070000000     2.582000000    -1.174000000
O    -4.648000000     0.362000000    -2.178000000
H    -2.529000000     0.323000000    -2.120000000
C    -2.736000000    -2.264000000    -3.328000000
C    -4.138000000    -2.409000000    -2.878000000
H    -4.180000000    -3.500000000    -2.874000000
H    -4.816000000    -1.945000000    -3.597000000
C    -4.515000000    -1.949000000    -1.463000000
C    -4.724000000    -0.599000000    -1.206000000
C    -4.829000000    -0.223000000     0.118000000
H    -4.859000000     0.841000000     0.339000000
C    -4.688000000    -1.111000000     1.204000000
O    -4.672000000    -0.692000000     2.501000000
C    -3.433000000    -0.424000000     3.038000000
H    -2.683000000    -0.346000000     2.238000000
C    -3.251000000     0.909000000     3.753000000
C    -2.190000000     1.163000000     4.679000000
H    -1.524000000     0.347000000     4.948000000
C    -4.066000000     2.018000000     3.328000000
H    -4.803000000     1.828000000     2.552000000
C    -3.939000000     3.239000000     3.977000000
O    -4.742000000     4.308000000     3.571000000
C    -2.987000000     3.410000000     5.004000000
H    -2.919000000     4.343000000     5.558000000
C    -2.007000000     2.453000000     5.210000000
O    -0.994000000     2.634000000     6.128000000
C     0.050000000     1.701000000     6.398000000
C     1.314000000     1.782000000     5.781000000
H     1.466000000     2.539000000     5.016000000
C    -0.106000000     0.720000000     7.380000000
H    -1.026000000     0.674000000     7.956000000
C     0.977000000    -0.065000000     7.844000000
H     0.883000000    -0.724000000     8.703000000
C     2.209000000     0.073000000     7.238000000
H     3.092000000    -0.401000000     7.657000000
C     2.357000000     0.948000000     6.131000000
O     3.612000000     0.889000000     5.648000000
C     4.002000000    -0.030000000     4.669000000
C     5.225000000     0.216000000     4.081000000
H     5.976000000     0.920000000     4.431000000
C     5.555000000    -0.416000000     2.877000000
O     6.713000000     0.052000000     2.278000000
C     7.096000000    -0.314000000     0.983000000
C     6.518000000     0.375000000    -0.091000000
H     5.867000000     1.229000000     0.078000000
C     7.810000000    -1.514000000     0.818000000
H     7.998000000    -2.187000000     1.652000000
C     8.104000000    -1.888000000    -0.462000000
H     8.594000000    -2.851000000    -0.582000000
C     7.811000000    -1.077000000    -1.542000000
H     8.167000000    -1.397000000    -2.519000000
C     6.964000000     0.037000000    -1.376000000
O     6.553000000     0.831000000    -2.476000000
C     5.308000000     0.793000000    -2.976000000
C     4.816000000     1.926000000    -3.565000000
H     5.392000000     2.845000000    -3.642000000
C     3.546000000     1.922000000    -4.140000000
O     3.016000000     3.122000000    -4.609000000
C     1.947000000     3.254000000    -5.475000000
C     0.797000000     3.866000000    -4.953000000
H     0.708000000     4.275000000    -3.950000000
C     2.014000000     2.982000000    -6.854000000
H     2.933000000     2.570000000    -7.262000000
C     0.920000000     3.189000000    -7.671000000
H     1.002000000     3.034000000    -8.744000000
C    -0.301000000     3.580000000    -7.112000000
H    -1.213000000     3.569000000    -7.703000000
C    -0.352000000     3.978000000    -5.714000000
O    -1.361000000     4.675000000    -5.107000000
C    -2.079000000     4.109000000    -4.068000000
C    -2.294000000     4.899000000    -2.968000000
H    -1.980000000     5.939000000    -2.928000000
C    -2.940000000     4.300000000    -1.862000000
O    -3.002000000     5.147000000    -0.793000000
C    -4.101000000     5.067000000     0.044000000
C    -5.380000000     5.449000000    -0.354000000
H    -5.506000000     5.778000000    -1.382000000
C    -6.431000000     5.516000000     0.541000000
H    -7.420000000     5.837000000     0.223000000
C    -6.156000000     5.177000000     1.847000000
H    -6.924000000     5.332000000     2.600000000
C    -4.889000000     4.681000000     2.241000000
C    -3.843000000     4.661000000     1.333000000
H    -2.833000000     4.350000000     1.587000000
O     2.566000000     8.136000000     4.692000000
H     2.077000000     8.002000000     3.880000000
H     3.070000000     7.331000000     4.805000000
O     4.352000000     8.053000000    -0.881000000
H     3.470000000     7.900000000    -1.221000000
H     4.488000000     8.994000000    -0.986000000
O     4.653000000     3.294000000     1.985000000
H     5.194000000     3.628000000     1.270000000
H     4.130000000     2.599000000     1.585000000
O    -0.621000000    10.546000000     2.818000000
H     0.224000000    10.690000000     3.243000000
H    -0.559000000     9.663000000     2.455000000
O     1.159000000     9.549000000     0.660000000
H     0.483000000     9.635000000    -0.012000000
H     1.699000000    10.333000000     0.559000000
O     5.221000000     6.719000000     1.884000000
H     4.619000000     7.265000000     1.378000000
H     5.027000000     5.825000000     1.602000000
O    -4.289000000     8.152000000     0.958000000
H    -3.539000000     8.645000000     1.291000000
H    -4.052000000     7.234000000     1.095000000
O     0.084000000     7.141000000    -1.801000000
H    -0.028000000     6.600000000    -1.020000000
H    -0.424000000     7.932000000    -1.621000000
O     3.377000000     1.614000000     0.027000000
H     2.421000000     1.659000000     0.045000000
H     3.643000000     2.376000000    -0.487000000
O    -3.966000000     8.420000000    -1.939000000
H    -3.342000000     7.694000000    -1.957000000
H    -4.105000000     8.593000000    -1.008000000
O     3.965000000     5.450000000     5.510000000
H     3.344000000     5.191000000     6.191000000
H     3.427000000     5.560000000     4.726000000
O     2.460000000     4.818000000     3.435000000
H     1.836000000     5.318000000     2.908000000
H     2.874000000     4.221000000     2.811000000
O     3.277000000     4.535000000    -1.175000000
H     3.758000000     4.790000000    -1.962000000
H     2.634000000     5.234000000    -1.051000000
O    -0.706000000     7.881000000    -4.226000000
H    -0.425000000     7.530000000    -3.381000000
H    -0.055000000     7.558000000    -4.848000000
O     2.279000000     7.950000000    -2.865000000
H     1.406000000     7.665000000    -2.594000000
H     2.224000000     8.906000000    -2.880000000
O     1.557000000     7.417000000     2.384000000
H     0.870000000     6.821000000     2.088000000
H     1.562000000     8.119000000     1.732000000
O    -1.507000000     7.452000000     1.803000000
H    -1.050000000     6.656000000     2.075000000
H    -1.123000000     7.669000000     0.954000000
O    -2.448000000     8.070000000     4.206000000
H    -2.314000000     7.683000000     3.341000000
H    -2.949000000     7.413000000     4.688000000
O    -0.111000000     5.683000000     5.354000000
H    -0.092000000     5.106000000     4.591000000
H    -0.490000000     6.499000000     5.028000000
