201
-1220.65815
C     3.254000000    -1.610000000     3.716000000
H     3.667000000    -1.908000000     2.756000000
C     1.973000000    -2.086000000     4.047000000
C     1.373000000    -1.756000000     5.222000000
H     0.332000000    -2.035000000     5.361000000
C     1.223000000    -2.897000000     2.961000000
O     2.154000000    -3.691000000     2.211000000
H     0.783000000    -2.107000000     2.335000000
O     0.147000000    -3.601000000     3.662000000
C    -1.071000000    -3.653000000     3.033000000
C    -2.008000000    -2.674000000     3.341000000
H    -1.826000000    -2.046000000     4.210000000
C    -3.145000000    -2.499000000     2.623000000
O    -3.871000000    -1.376000000     2.881000000
C    -3.316000000    -3.264000000     1.515000000
C    -4.539000000    -3.059000000     0.595000000
H    -4.713000000    -3.977000000     0.029000000
C    -4.294000000    -1.992000000    -0.512000000
C    -4.036000000    -2.383000000    -1.790000000
H    -3.941000000    -3.414000000    -2.122000000
H    -5.402000000    -2.799000000     1.211000000
C    -2.369000000    -4.178000000     1.135000000
H    -2.572000000    -4.689000000     0.198000000
C    -1.285000000    -4.481000000     1.945000000
C    -0.171000000    -5.387000000     1.409000000
H    -0.682000000    -6.182000000     0.863000000
H     0.399000000    -5.799000000     2.244000000
C     0.837000000    -4.684000000     0.476000000
C     0.588000000    -4.728000000    -0.859000000
H    -0.309000000    -5.208000000    -1.242000000
C     1.946000000    -3.956000000     0.899000000
C     2.849000000    -3.438000000    -0.006000000
H     3.729000000    -2.917000000     0.362000000
C     2.659000000    -3.690000000    -1.360000000
O     3.515000000    -3.080000000    -2.263000000
C     3.032000000    -1.825000000    -2.879000000
C     4.031000000    -0.646000000    -2.740000000
C     4.224000000     0.206000000    -3.897000000
H     3.810000000    -0.154000000    -4.835000000
C     4.613000000    -0.266000000    -1.571000000
H     4.329000000    -0.927000000    -0.756000000
O     2.470000000    -2.017000000    -4.217000000
H     2.261000000    -1.428000000    -2.203000000
C     1.541000000    -4.322000000    -1.802000000
C     1.139000000    -4.422000000    -3.262000000
H     0.431000000    -5.252000000    -3.304000000
H     1.983000000    -4.763000000    -3.865000000
C     0.364000000    -3.176000000    -3.758000000
C    -1.078000000    -3.093000000    -3.732000000
H    -1.682000000    -3.941000000    -3.421000000
C     1.076000000    -2.077000000    -4.301000000
C     0.428000000    -0.907000000    -4.572000000
H     1.060000000    -0.053000000    -4.798000000
C    -0.997000000    -0.819000000    -4.444000000
O    -1.535000000     0.389000000    -4.630000000
C    -1.929000000     1.089000000    -3.401000000
C    -1.568000000     2.537000000    -3.369000000
C    -0.628000000     3.073000000    -4.323000000
H    -0.331000000     2.503000000    -5.199000000
C    -1.872000000     3.387000000    -2.299000000
H    -2.525000000     3.018000000    -1.512000000
O    -3.358000000     0.937000000    -3.243000000
H    -1.422000000     0.583000000    -2.566000000
C    -1.720000000    -1.920000000    -4.070000000
C    -3.262000000    -1.927000000    -4.081000000
H    -3.796000000    -2.853000000    -4.303000000
H    -3.550000000    -1.248000000    -4.886000000
C    -3.728000000    -1.437000000    -2.723000000
C    -3.746000000    -0.099000000    -2.410000000
C    -3.975000000     0.335000000    -1.174000000
H    -4.017000000     1.395000000    -0.940000000
C    -4.327000000    -0.601000000    -0.226000000
O    -4.641000000    -0.232000000     0.982000000
C    -3.598000000    -0.267000000     1.975000000
H    -2.630000000    -0.472000000     1.495000000
C    -3.656000000     1.040000000     2.803000000
C    -2.923000000     1.162000000     3.943000000
H    -2.326000000     0.392000000     4.426000000
C    -4.431000000     2.113000000     2.375000000
H    -5.045000000     2.068000000     1.479000000
C    -4.396000000     3.363000000     2.991000000
O    -4.836000000     4.484000000     2.419000000
C    -3.527000000     3.484000000     4.097000000
H    -3.340000000     4.504000000     4.424000000
C    -2.834000000     2.398000000     4.564000000
O    -1.902000000     2.590000000     5.588000000
C    -1.576000000     1.518000000     6.482000000
C    -0.269000000     1.022000000     6.517000000
H     0.549000000     1.402000000     5.909000000
C    -2.519000000     1.023000000     7.370000000
H    -3.549000000     1.347000000     7.250000000
C    -2.222000000     0.000000000     8.241000000
H    -3.002000000    -0.324000000     8.925000000
C    -0.901000000    -0.469000000     8.279000000
H    -0.622000000    -1.242000000     8.991000000
C     0.045000000    -0.033000000     7.377000000
O     1.289000000    -0.557000000     7.405000000
C     1.983000000    -0.944000000     6.250000000
C     3.193000000    -0.395000000     5.873000000
H     3.589000000     0.367000000     6.539000000
C     3.829000000    -0.686000000     4.647000000
O     5.017000000    -0.025000000     4.224000000
C     5.638000000    -0.267000000     2.972000000
C     5.479000000     0.712000000     1.944000000
H     4.896000000     1.617000000     2.096000000
C     6.323000000    -1.443000000     2.743000000
H     6.295000000    -2.096000000     3.612000000
C     6.970000000    -1.670000000     1.550000000
H     7.392000000    -2.667000000     1.457000000
C     6.915000000    -0.713000000     0.544000000
H     7.516000000    -0.721000000    -0.362000000
C     6.121000000     0.417000000     0.737000000
O     5.867000000     1.318000000    -0.252000000
C     5.411000000     0.868000000    -1.488000000
C     5.566000000     1.757000000    -2.572000000
H     6.150000000     2.674000000    -2.541000000
C     4.992000000     1.395000000    -3.796000000
O     5.124000000     2.207000000    -4.923000000
C     4.032000000     2.673000000    -5.516000000
C     3.091000000     3.431000000    -4.887000000
H     3.206000000     3.484000000    -3.807000000
C     3.911000000     2.488000000    -6.930000000
H     4.766000000     1.993000000    -7.382000000
C     2.775000000     2.918000000    -7.600000000
H     2.669000000     2.753000000    -8.669000000
C     1.784000000     3.624000000    -6.912000000
H     0.919000000     3.985000000    -7.462000000
C     1.974000000     3.896000000    -5.581000000
O     1.052000000     4.720000000    -4.977000000
C    -0.054000000     4.331000000    -4.231000000
C    -0.551000000     5.203000000    -3.282000000
H    -0.161000000     6.217000000    -3.238000000
C    -1.455000000     4.743000000    -2.332000000
O    -1.751000000     5.544000000    -1.203000000
C    -3.012000000     5.536000000    -0.551000000
C    -4.055000000     5.956000000    -1.306000000
H    -3.785000000     6.260000000    -2.314000000
C    -5.396000000     5.797000000    -0.955000000
H    -6.194000000     6.054000000    -1.648000000
C    -5.675000000     5.191000000     0.264000000
H    -6.704000000     5.139000000     0.610000000
C    -4.620000000     4.718000000     1.048000000
C    -3.301000000     4.847000000     0.646000000
H    -2.494000000     4.420000000     1.235000000
O     3.444000000     4.053000000     8.311000000
H     3.369000000     3.562000000     7.492000000
H     3.710000000     4.932000000     8.040000000
O    -1.150000000     5.220000000     6.923000000
H    -0.683000000     4.917000000     7.701000000
H    -0.652000000     4.858000000     6.189000000
O     3.883000000     8.871000000     2.244000000
H     3.895000000     9.528000000     2.941000000
H     2.962000000     8.802000000     1.996000000
O     5.796000000     5.395000000     6.237000000
H     6.022000000     6.270000000     6.555000000
H     5.440000000     5.543000000     5.361000000
O     2.396000000     6.093000000     6.204000000
H     1.676000000     5.735000000     5.683000000
H     3.187000000     5.813000000     5.743000000
O     2.146000000     5.970000000     0.990000000
H     2.238000000     5.017000000     0.962000000
H     2.907000000     6.270000000     1.487000000
O     0.585000000     8.146000000     1.970000000
H     1.090000000     7.400000000     1.646000000
H    -0.050000000     7.760000000     2.574000000
O    -1.157000000     7.411000000     3.887000000
H    -1.172000000     7.598000000     4.826000000
H    -2.074000000     7.250000000     3.661000000
O     8.350000000     4.753000000     4.613000000
H     7.956000000     3.979000000     4.211000000
H     7.668000000     5.096000000     5.190000000
O     5.879000000     2.030000000     7.618000000
H     5.478000000     2.632000000     6.990000000
H     6.205000000     2.596000000     8.318000000
O     4.169000000     5.265000000     3.913000000
H     3.399000000     4.771000000     3.632000000
H     4.508000000     5.658000000     3.109000000
O     0.366000000     4.936000000     4.576000000
H     1.011000000     4.504000000     4.017000000
H    -0.056000000     5.577000000     4.004000000
O     7.186000000     7.493000000     1.329000000
H     6.718000000     6.687000000     1.112000000
H     6.497000000     8.150000000     1.433000000
O     3.595000000     3.241000000     5.786000000
H     4.175000000     3.729000000     5.202000000
H     2.910000000     2.899000000     5.212000000
O     6.016000000     4.950000000     0.769000000
H     6.738000000     4.343000000     0.932000000
H     5.231000000     4.458000000     1.013000000
O     6.468000000     2.327000000     4.965000000
H     6.092000000     1.616000000     5.485000000
H     5.945000000     2.340000000     4.164000000
O     4.582000000     6.491000000    -1.913000000
H     5.138000000     6.015000000    -2.530000000
H     4.948000000     6.284000000    -1.053000000
O     8.305000000     3.310000000     0.366000000
H     7.800000000     3.491000000    -0.427000000
H     9.195000000     3.588000000     0.152000000
O     2.299000000     7.460000000    -1.225000000
H     2.102000000     6.752000000    -0.611000000
H     3.111000000     7.187000000    -1.652000000
