201
-1252.15198
C     2.798000000    -2.287000000     4.161000000
H     3.162000000    -2.974000000     3.402000000
C     1.412000000    -2.077000000     4.185000000
C     0.902000000    -0.997000000     4.950000000
H    -0.157000000    -0.771000000     5.040000000
C     0.504000000    -2.816000000     3.186000000
O     0.979000000    -4.154000000     2.811000000
H     0.372000000    -2.154000000     2.317000000
O    -0.760000000    -2.847000000     3.850000000
C    -1.916000000    -2.625000000     3.156000000
C    -2.514000000    -1.395000000     3.289000000
H    -2.045000000    -0.689000000     3.969000000
C    -3.655000000    -1.045000000     2.539000000
O    -4.113000000     0.232000000     2.705000000
C    -4.157000000    -1.981000000     1.645000000
C    -5.308000000    -1.528000000     0.751000000
H    -5.859000000    -2.360000000     0.307000000
C    -4.890000000    -0.742000000    -0.474000000
C    -4.505000000    -1.419000000    -1.607000000
H    -4.501000000    -2.503000000    -1.690000000
H    -6.127000000    -1.014000000     1.259000000
C    -3.460000000    -3.207000000     1.424000000
H    -3.927000000    -3.897000000     0.725000000
C    -2.375000000    -3.578000000     2.193000000
C    -1.743000000    -4.946000000     2.141000000
H    -2.504000000    -5.633000000     1.765000000
H    -1.318000000    -5.214000000     3.111000000
C    -0.581000000    -4.842000000     1.135000000
C    -0.844000000    -4.998000000    -0.228000000
H    -1.856000000    -5.171000000    -0.583000000
C     0.732000000    -4.518000000     1.502000000
C     1.738000000    -4.512000000     0.616000000
H     2.693000000    -4.122000000     0.959000000
C     1.467000000    -4.608000000    -0.756000000
O     2.526000000    -4.270000000    -1.539000000
C     2.323000000    -2.964000000    -2.238000000
C     3.563000000    -2.072000000    -2.127000000
C     3.976000000    -1.273000000    -3.165000000
H     3.485000000    -1.201000000    -4.132000000
C     4.310000000    -1.962000000    -0.954000000
H     3.979000000    -2.576000000    -0.120000000
O     1.859000000    -3.236000000    -3.555000000
H     1.536000000    -2.487000000    -1.635000000
C     0.149000000    -4.856000000    -1.199000000
C    -0.190000000    -4.984000000    -2.627000000
H    -1.122000000    -5.551000000    -2.678000000
H     0.521000000    -5.619000000    -3.160000000
C    -0.509000000    -3.669000000    -3.332000000
C    -1.781000000    -3.269000000    -3.375000000
H    -2.576000000    -3.896000000    -2.979000000
C     0.558000000    -2.879000000    -3.773000000
C     0.290000000    -1.594000000    -4.178000000
H     1.105000000    -0.884000000    -4.291000000
C    -1.019000000    -1.122000000    -4.300000000
O    -1.221000000     0.189000000    -4.565000000
C    -1.586000000     1.114000000    -3.600000000
C    -0.666000000     2.400000000    -3.716000000
C     0.553000000     2.349000000    -4.356000000
H     0.842000000     1.438000000    -4.873000000
C    -1.083000000     3.573000000    -3.183000000
H    -1.995000000     3.576000000    -2.592000000
O    -3.050000000     1.306000000    -3.636000000
H    -1.287000000     0.714000000    -2.620000000
C    -2.110000000    -1.974000000    -3.946000000
C    -3.539000000    -1.570000000    -3.971000000
H    -4.178000000    -2.454000000    -4.017000000
H    -3.710000000    -0.978000000    -4.872000000
C    -4.035000000    -0.744000000    -2.732000000
C    -3.783000000     0.618000000    -2.674000000
C    -4.220000000     1.305000000    -1.536000000
H    -4.232000000     2.391000000    -1.579000000
C    -4.720000000     0.636000000    -0.395000000
O    -4.945000000     1.266000000     0.839000000
C    -3.816000000     1.284000000     1.703000000
H    -2.964000000     1.036000000     1.053000000
C    -3.510000000     2.646000000     2.318000000
C    -3.064000000     2.687000000     3.662000000
H    -2.844000000     1.814000000     4.271000000
C    -3.548000000     3.822000000     1.507000000
H    -3.803000000     3.751000000     0.452000000
C    -3.093000000     5.068000000     2.001000000
O    -3.276000000     6.266000000     1.313000000
C    -2.647000000     5.038000000     3.365000000
H    -2.304000000     5.996000000     3.748000000
C    -2.693000000     3.924000000     4.169000000
O    -2.107000000     4.000000000     5.409000000
C    -1.644000000     2.889000000     6.102000000
C    -0.335000000     2.360000000     6.018000000
H     0.454000000     2.789000000     5.405000000
C    -2.620000000     2.231000000     6.887000000
H    -3.610000000     2.673000000     6.968000000
C    -2.265000000     1.107000000     7.562000000
H    -2.920000000     0.596000000     8.263000000
C    -0.946000000     0.606000000     7.457000000
H    -0.671000000    -0.315000000     7.965000000
C    -0.003000000     1.195000000     6.670000000
O     1.328000000     0.746000000     6.574000000
C     1.813000000    -0.217000000     5.693000000
C     3.139000000    -0.574000000     5.767000000
H     3.807000000     0.067000000     6.336000000
C     3.606000000    -1.574000000     4.930000000
O     4.964000000    -1.813000000     4.821000000
C     5.654000000    -2.157000000     3.637000000
C     5.613000000    -1.444000000     2.476000000
H     5.052000000    -0.513000000     2.482000000
C     6.315000000    -3.369000000     3.685000000
H     6.495000000    -3.810000000     4.662000000
C     6.962000000    -3.847000000     2.587000000
H     7.343000000    -4.863000000     2.524000000
C     6.983000000    -3.141000000     1.419000000
H     7.442000000    -3.493000000     0.499000000
C     6.216000000    -1.958000000     1.337000000
O     6.201000000    -1.177000000     0.248000000
C     5.505000000    -1.301000000    -0.928000000
C     5.933000000    -0.521000000    -2.033000000
H     6.891000000    -0.010000000    -2.066000000
C     5.112000000    -0.495000000    -3.143000000
O     5.686000000     0.039000000    -4.298000000
C     5.022000000     0.959000000    -5.077000000
C     4.030000000     1.892000000    -4.657000000
H     3.752000000     2.019000000    -3.614000000
C     5.217000000     0.883000000    -6.474000000
H     5.934000000     0.137000000    -6.808000000
C     4.656000000     1.768000000    -7.429000000
H     4.876000000     1.777000000    -8.494000000
C     3.715000000     2.660000000    -6.912000000
H     3.291000000     3.336000000    -7.651000000
C     3.367000000     2.706000000    -5.570000000
O     2.480000000     3.702000000    -5.188000000
C     1.291000000     3.536000000    -4.489000000
C     0.780000000     4.709000000    -3.948000000
H     1.366000000     5.624000000    -3.902000000
C    -0.484000000     4.789000000    -3.416000000
O    -1.035000000     5.988000000    -3.012000000
C    -2.153000000     6.228000000    -2.168000000
C    -3.138000000     7.010000000    -2.804000000
H    -3.150000000     7.338000000    -3.841000000
C    -4.259000000     7.353000000    -1.995000000
H    -5.086000000     7.849000000    -2.496000000
C    -4.255000000     7.139000000    -0.621000000
H    -5.115000000     7.479000000    -0.049000000
C    -3.213000000     6.402000000    -0.060000000
C    -2.134000000     5.920000000    -0.820000000
H    -1.250000000     5.424000000    -0.428000000
O     6.137000000     3.311000000    -3.223000000
H     6.045000000     4.029000000    -3.849000000
H     7.010000000     2.957000000    -3.390000000
O     1.840000000     7.072000000     5.419000000
H     2.140000000     6.246000000     5.041000000
H     2.641000000     7.582000000     5.544000000
O     1.118000000     7.662000000     2.293000000
H     0.566000000     7.521000000     3.062000000
H     1.009000000     6.867000000     1.771000000
O     4.541000000     5.745000000    -2.571000000
H     5.291000000     5.246000000    -2.247000000
H     3.797000000     5.409000000    -2.071000000
O     5.381000000     8.172000000    -3.629000000
H     5.267000000     7.251000000    -3.395000000
H     4.661000000     8.357000000    -4.232000000
O     3.122000000     8.322000000    -5.142000000
H     2.505000000     7.713000000    -5.547000000
H     2.835000000     8.384000000    -4.231000000
O     3.644000000     9.016000000     2.548000000
H     4.237000000     8.267000000     2.500000000
H     2.798000000     8.670000000     2.264000000
O     4.962000000     6.345000000     2.870000000
H     5.723000000     6.823000000     3.199000000
H     5.271000000     5.444000000     2.769000000
O     5.757000000     3.058000000    -0.504000000
H     5.903000000     3.138000000    -1.446000000
H     6.197000000     3.819000000    -0.127000000
O     0.392000000     8.219000000    -0.347000000
H     0.616000000     7.304000000    -0.518000000
H     0.637000000     8.358000000     0.568000000
O     4.594000000     6.785000000     0.241000000
H     3.743000000     6.507000000    -0.098000000
H     4.442000000     6.939000000     1.173000000
O     2.595000000     4.492000000     3.950000000
H     3.386000000     4.036000000     3.663000000
H     1.984000000     4.395000000     3.219000000
O     6.935000000     5.378000000     0.020000000
H     7.146000000     5.501000000     0.945000000
H     6.275000000     6.046000000    -0.167000000
O     5.791000000     3.821000000     3.221000000
H     6.683000000     3.559000000     2.995000000
H     5.902000000     4.531000000     3.853000000
O     4.073000000     1.915000000     3.721000000
H     3.647000000     1.425000000     3.019000000
H     4.788000000     2.382000000     3.288000000
O     2.406000000     7.969000000    -2.371000000
H     2.663000000     7.069000000    -2.169000000
H     1.805000000     8.211000000    -1.667000000
O     4.299000000     1.243000000     0.975000000
H     4.660000000     2.027000000     0.562000000
H     4.592000000     0.522000000     0.418000000
O     6.527000000     8.102000000    -1.211000000
H     5.685000000     7.681000000    -1.040000000
H     6.478000000     8.373000000    -2.128000000
O    -1.859000000     9.658000000     0.979000000
H    -1.447000000    10.433000000     1.362000000
H    -1.127000000     9.138000000     0.647000000
