201
-1241.53501
C    -5.233000000    -0.769000000    -0.215000000
H    -5.140000000    -0.006000000    -0.984000000
C    -4.719000000    -0.505000000     1.015000000
C    -4.793000000    -1.495000000     1.977000000
H    -4.341000000    -1.384000000     2.959000000
C    -3.935000000     0.765000000     1.239000000
O    -4.572000000     1.859000000     0.536000000
H    -2.903000000     0.736000000     0.858000000
O    -3.824000000     1.136000000     2.616000000
C    -2.673000000     1.734000000     3.133000000
C    -1.819000000     0.814000000     3.785000000
H    -2.051000000    -0.248000000     3.761000000
C    -0.609000000     1.207000000     4.204000000
O     0.190000000     0.319000000     4.806000000
C    -0.187000000     2.592000000     4.047000000
C     1.228000000     2.981000000     4.487000000
H     1.170000000     4.068000000     4.567000000
C     2.273000000     2.620000000     3.486000000
C     2.572000000     3.522000000     2.458000000
H     1.988000000     4.430000000     2.326000000
H     1.562000000     2.523000000     5.420000000
C    -1.072000000     3.506000000     3.389000000
H    -0.806000000     4.548000000     3.236000000
C    -2.330000000     3.074000000     2.940000000
C    -3.326000000     3.992000000     2.157000000
H    -3.197000000     5.031000000     2.469000000
H    -4.371000000     3.749000000     2.356000000
C    -3.087000000     3.773000000     0.693000000
C    -2.084000000     4.468000000     0.075000000
H    -1.484000000     5.130000000     0.694000000
C    -3.821000000     2.823000000    -0.071000000
C    -3.522000000     2.628000000    -1.396000000
H    -4.137000000     1.867000000    -1.870000000
C    -2.476000000     3.293000000    -2.012000000
O    -2.126000000     2.993000000    -3.330000000
C    -0.999000000     2.008000000    -3.403000000
C    -1.306000000     0.942000000    -4.400000000
C    -0.281000000     0.403000000    -5.194000000
H     0.747000000     0.750000000    -5.127000000
C    -2.565000000     0.452000000    -4.648000000
H    -3.391000000     0.866000000    -4.075000000
O     0.168000000     2.707000000    -3.871000000
H    -0.770000000     1.619000000    -2.399000000
C    -1.753000000     4.278000000    -1.294000000
C    -0.596000000     5.000000000    -1.974000000
H    -0.504000000     5.971000000    -1.484000000
H    -0.709000000     5.182000000    -3.045000000
C     0.661000000     4.209000000    -1.933000000
C     1.593000000     4.558000000    -0.878000000
H     1.336000000     5.260000000    -0.089000000
C     1.038000000     3.291000000    -2.911000000
C     2.277000000     2.640000000    -2.807000000
H     2.544000000     1.872000000    -3.528000000
C     3.130000000     2.930000000    -1.746000000
O     4.280000000     2.117000000    -1.625000000
C     4.193000000     1.122000000    -0.626000000
C     4.602000000    -0.249000000    -1.079000000
C     4.242000000    -0.672000000    -2.328000000
H     3.630000000    -0.062000000    -2.987000000
C     5.358000000    -1.100000000    -0.210000000
H     5.764000000    -0.690000000     0.711000000
O     4.959000000     1.534000000     0.536000000
H     3.132000000     1.083000000    -0.339000000
C     2.830000000     3.882000000    -0.802000000
C     3.720000000     4.211000000     0.306000000
H     3.401000000     5.210000000     0.610000000
H     4.740000000     4.350000000    -0.059000000
C     3.571000000     3.219000000     1.499000000
C     4.188000000     1.980000000     1.597000000
C     3.909000000     1.085000000     2.574000000
H     4.404000000     0.118000000     2.597000000
C     2.906000000     1.330000000     3.487000000
O     2.407000000     0.334000000     4.355000000
C     1.150000000    -0.238000000     3.944000000
H     0.881000000    -0.063000000     2.892000000
C     1.248000000    -1.813000000     4.034000000
C     0.124000000    -2.631000000     4.015000000
H    -0.873000000    -2.200000000     4.049000000
C     2.431000000    -2.433000000     3.961000000
H     3.323000000    -1.838000000     3.783000000
C     2.573000000    -3.841000000     4.096000000
O     3.869000000    -4.399000000     4.201000000
C     1.427000000    -4.599000000     3.987000000
H     1.602000000    -5.665000000     3.869000000
C     0.166000000    -4.018000000     3.978000000
O    -0.955000000    -4.855000000     3.983000000
C    -2.232000000    -4.371000000     4.286000000
C    -3.150000000    -4.375000000     3.281000000
H    -2.949000000    -4.687000000     2.259000000
C    -2.514000000    -3.889000000     5.556000000
H    -1.735000000    -3.822000000     6.312000000
C    -3.752000000    -3.430000000     5.940000000
H    -3.919000000    -3.080000000     6.956000000
C    -4.728000000    -3.375000000     4.938000000
H    -5.691000000    -2.915000000     5.142000000
C    -4.424000000    -3.799000000     3.624000000
O    -5.335000000    -3.764000000     2.581000000
C    -5.459000000    -2.712000000     1.706000000
C    -5.921000000    -3.022000000     0.450000000
H    -6.510000000    -3.930000000     0.343000000
C    -5.858000000    -1.978000000    -0.495000000
O    -6.355000000    -2.282000000    -1.730000000
C    -6.383000000    -1.530000000    -2.792000000
C    -5.291000000    -1.613000000    -3.617000000
H    -4.472000000    -2.293000000    -3.396000000
C    -7.444000000    -0.681000000    -3.076000000
H    -8.298000000    -0.648000000    -2.405000000
C    -7.364000000     0.013000000    -4.282000000
H    -8.165000000     0.657000000    -4.634000000
C    -6.257000000    -0.027000000    -5.104000000
H    -6.250000000     0.703000000    -5.909000000
C    -5.200000000    -0.879000000    -4.791000000
O    -4.152000000    -0.984000000    -5.708000000
C    -2.893000000    -0.607000000    -5.517000000
C    -1.914000000    -1.043000000    -6.319000000
H    -2.224000000    -1.745000000    -7.089000000
C    -0.599000000    -0.578000000    -6.167000000
O     0.448000000    -0.901000000    -6.949000000
C     1.782000000    -0.789000000    -6.518000000
C     2.260000000    -1.673000000    -5.538000000
H     1.557000000    -2.310000000    -5.007000000
C     2.669000000     0.045000000    -7.132000000
H     2.268000000     0.749000000    -7.857000000
C     4.012000000     0.118000000    -6.749000000
H     4.746000000     0.680000000    -7.321000000
C     4.485000000    -0.648000000    -5.697000000
H     5.476000000    -0.617000000    -5.252000000
C     3.574000000    -1.472000000    -5.036000000
O     3.999000000    -2.293000000    -4.031000000
C     4.454000000    -1.948000000    -2.785000000
C     5.157000000    -2.859000000    -1.869000000
H     5.475000000    -3.836000000    -2.223000000
C     5.583000000    -2.388000000    -0.617000000
O     6.194000000    -3.372000000     0.150000000
C     6.138000000    -3.349000000     1.513000000
C     7.209000000    -2.763000000     2.180000000
H     8.043000000    -2.341000000     1.627000000
C     7.204000000    -2.852000000     3.604000000
H     7.975000000    -2.389000000     4.214000000
C     6.075000000    -3.314000000     4.261000000
H     6.045000000    -3.288000000     5.347000000
C     4.978000000    -3.840000000     3.536000000
C     5.037000000    -3.940000000     2.174000000
H     4.378000000    -4.584000000     1.599000000
O    -1.103000000    -7.464000000    -5.832000000
H    -1.630000000    -7.952000000    -5.199000000
H    -0.795000000    -6.698000000    -5.348000000
O     1.690000000    -5.412000000    -5.054000000
H     0.813000000    -5.079000000    -4.864000000
H     2.071000000    -5.588000000    -4.194000000
O     0.420000000    -9.983000000    -1.330000000
H     0.134000000    -9.084000000    -1.490000000
H     0.377000000   -10.083000000    -0.379000000
O     3.841000000    -8.759000000    -1.558000000
H     3.440000000    -8.659000000    -2.421000000
H     3.552000000    -7.989000000    -1.069000000
O     2.830000000    -5.477000000    -2.479000000
H     2.105000000    -5.080000000    -1.996000000
H     3.408000000    -5.827000000    -1.800000000
O    -2.695000000    -8.311000000    -3.810000000
H    -3.615000000    -8.258000000    -3.555000000
H    -2.215000000    -7.992000000    -3.046000000
O     3.629000000    -7.403000000     2.592000000
H     3.451000000    -7.592000000     3.514000000
H     3.918000000    -8.240000000     2.228000000
O    -1.582000000    -8.339000000     3.193000000
H    -0.910000000    -8.222000000     2.522000000
H    -2.410000000    -8.220000000     2.727000000
O     5.692000000    -6.340000000    -1.146000000
H     5.016000000    -6.191000000    -0.484000000
H     6.516000000    -6.283000000    -0.663000000
O    -3.085000000    -8.981000000    -0.360000000
H    -3.300000000    -9.801000000    -0.805000000
H    -3.625000000    -8.988000000     0.430000000
O    -0.918000000    -4.753000000    -4.240000000
H    -0.678000000    -4.902000000    -3.326000000
H    -1.768000000    -4.314000000    -4.196000000
O     1.282000000    -9.550000000     1.502000000
H     2.122000000    -9.530000000     1.043000000
H     1.045000000    -8.629000000     1.608000000
O    -5.416000000    -5.593000000    -3.726000000
H    -5.209000000    -6.519000000    -3.605000000
H    -4.751000000    -5.130000000    -3.217000000
O    -4.364000000    -8.256000000     1.972000000
H    -4.389000000    -7.862000000     2.844000000
H    -4.669000000    -7.562000000     1.387000000
O     0.123000000    -7.048000000     1.813000000
H     0.347000000    -6.520000000     1.046000000
H    -0.282000000    -6.428000000     2.420000000
O     3.321000000    -6.369000000     0.062000000
H     2.557000000    -5.853000000    -0.196000000
H     3.281000000    -6.396000000     1.018000000
O    -0.890000000    -7.509000000    -1.674000000
H    -0.599000000    -6.605000000    -1.554000000
H    -1.604000000    -7.617000000    -1.046000000
O    -5.107000000    -6.445000000     0.389000000
H    -6.022000000    -6.362000000     0.118000000
H    -4.621000000    -5.915000000    -0.243000000
O    -3.560000000    -4.759000000    -1.516000000
H    -3.685000000    -3.823000000    -1.355000000
H    -2.614000000    -4.889000000    -1.447000000
