201
-1265.09983
C     3.133000000    -0.419000000     4.471000000
H     3.704000000    -1.267000000     4.101000000
C     1.784000000    -0.464000000     4.613000000
C     1.092000000     0.702000000     4.930000000
H     0.008000000     0.767000000     4.968000000
C     1.007000000    -1.663000000     4.139000000
O     1.802000000    -2.773000000     4.126000000
H     0.659000000    -1.435000000     3.121000000
O    -0.219000000    -1.766000000     4.851000000
C    -1.370000000    -1.925000000     4.103000000
C    -2.277000000    -0.847000000     3.845000000
H    -2.157000000     0.099000000     4.367000000
C    -3.282000000    -0.968000000     2.901000000
O    -4.151000000     0.133000000     2.653000000
C    -3.584000000    -2.204000000     2.296000000
C    -4.755000000    -2.349000000     1.361000000
H    -5.045000000    -3.399000000     1.435000000
C    -4.411000000    -1.915000000    -0.071000000
C    -3.959000000    -2.871000000    -0.979000000
H    -3.837000000    -3.918000000    -0.715000000
H    -5.596000000    -1.791000000     1.779000000
C    -2.632000000    -3.234000000     2.484000000
H    -2.764000000    -4.200000000     2.003000000
C    -1.557000000    -3.198000000     3.379000000
C    -0.610000000    -4.399000000     3.565000000
H    -1.203000000    -5.288000000     3.340000000
H    -0.169000000    -4.564000000     4.551000000
C     0.547000000    -4.265000000     2.629000000
C     0.519000000    -4.840000000     1.334000000
H    -0.396000000    -5.268000000     0.933000000
C     1.671000000    -3.433000000     2.932000000
C     2.568000000    -3.137000000     1.968000000
H     3.386000000    -2.452000000     2.177000000
C     2.527000000    -3.706000000     0.654000000
O     3.460000000    -3.285000000    -0.244000000
C     3.021000000    -2.417000000    -1.314000000
C     4.120000000    -1.380000000    -1.625000000
C     4.230000000    -0.710000000    -2.800000000
H     3.604000000    -0.972000000    -3.648000000
C     4.913000000    -0.871000000    -0.566000000
H     4.652000000    -1.186000000     0.441000000
O     2.722000000    -3.232000000    -2.477000000
H     2.129000000    -1.842000000    -1.026000000
C     1.471000000    -4.521000000     0.371000000
C     1.344000000    -5.173000000    -1.009000000
H     0.866000000    -6.152000000    -0.933000000
H     2.366000000    -5.380000000    -1.331000000
C     0.600000000    -4.280000000    -1.939000000
C    -0.756000000    -4.294000000    -2.137000000
H    -1.321000000    -4.919000000    -1.451000000
C     1.405000000    -3.479000000    -2.775000000
C     0.763000000    -2.624000000    -3.736000000
H     1.332000000    -1.812000000    -4.180000000
C    -0.598000000    -2.634000000    -3.905000000
O    -1.258000000    -1.770000000    -4.730000000
C    -1.813000000    -0.592000000    -4.056000000
C    -1.467000000     0.714000000    -4.737000000
C    -0.323000000     0.852000000    -5.549000000
H     0.227000000    -0.051000000    -5.802000000
C    -2.236000000     1.879000000    -4.523000000
H    -3.076000000     1.923000000    -3.835000000
O    -3.260000000    -0.716000000    -3.817000000
H    -1.300000000    -0.614000000    -3.083000000
C    -1.405000000    -3.471000000    -3.097000000
C    -2.898000000    -3.492000000    -3.176000000
H    -3.199000000    -4.513000000    -2.933000000
H    -3.270000000    -3.314000000    -4.187000000
C    -3.550000000    -2.460000000    -2.255000000
C    -3.688000000    -1.128000000    -2.628000000
C    -4.149000000    -0.172000000    -1.717000000
H    -4.312000000     0.881000000    -1.931000000
C    -4.553000000    -0.565000000    -0.462000000
O    -5.010000000     0.399000000     0.473000000
C    -4.024000000     0.866000000     1.426000000
H    -3.034000000     0.533000000     1.082000000
C    -4.009000000     2.355000000     1.663000000
C    -3.710000000     2.825000000     2.930000000
H    -3.476000000     2.073000000     3.679000000
C    -4.200000000     3.204000000     0.553000000
H    -4.277000000     2.761000000    -0.436000000
C    -4.019000000     4.631000000     0.733000000
O    -3.962000000     5.479000000    -0.363000000
C    -3.862000000     5.063000000     2.048000000
H    -3.782000000     6.140000000     2.167000000
C    -3.634000000     4.228000000     3.131000000
O    -3.237000000     4.678000000     4.317000000
C    -2.409000000     4.005000000     5.222000000
C    -1.019000000     3.883000000     4.900000000
H    -0.595000000     4.184000000     3.945000000
C    -2.870000000     3.758000000     6.523000000
H    -3.896000000     4.058000000     6.719000000
C    -2.057000000     3.129000000     7.460000000
H    -2.453000000     2.801000000     8.418000000
C    -0.751000000     2.825000000     7.062000000
H    -0.036000000     2.332000000     7.715000000
C    -0.241000000     3.293000000     5.881000000
O     1.122000000     3.111000000     5.499000000
C     1.793000000     1.878000000     5.324000000
C     3.165000000     1.895000000     5.267000000
H     3.741000000     2.732000000     5.655000000
C     3.852000000     0.768000000     4.795000000
O     5.178000000     0.699000000     4.825000000
C     5.867000000     0.109000000     3.808000000
C     5.724000000     0.671000000     2.547000000
H     5.013000000     1.491000000     2.487000000
C     6.782000000    -0.855000000     4.124000000
H     6.796000000    -1.224000000     5.147000000
C     7.550000000    -1.380000000     3.082000000
H     8.233000000    -2.219000000     3.188000000
C     7.372000000    -0.853000000     1.763000000
H     8.053000000    -1.176000000     0.981000000
C     6.510000000     0.150000000     1.518000000
O     6.498000000     0.702000000     0.264000000
C     5.862000000     0.156000000    -0.788000000
C     6.010000000     0.752000000    -2.040000000
H     6.687000000     1.593000000    -2.164000000
C     5.107000000     0.367000000    -3.023000000
O     5.057000000     1.144000000    -4.144000000
C     4.315000000     0.836000000    -5.268000000
C     3.166000000     1.582000000    -5.457000000
H     2.915000000     2.358000000    -4.738000000
C     4.720000000    -0.038000000    -6.244000000
H     5.567000000    -0.709000000    -6.126000000
C     3.956000000    -0.284000000    -7.430000000
H     4.270000000    -1.109000000    -8.064000000
C     2.844000000     0.451000000    -7.562000000
H     2.205000000     0.173000000    -8.397000000
C     2.347000000     1.398000000    -6.596000000
O     1.207000000     2.185000000    -6.802000000
C     0.104000000     2.062000000    -6.056000000
C    -0.751000000     3.162000000    -5.827000000
H    -0.432000000     4.110000000    -6.251000000
C    -1.885000000     3.117000000    -5.050000000
O    -2.668000000     4.252000000    -4.951000000
C    -3.636000000     4.406000000    -3.906000000
C    -4.992000000     4.342000000    -4.229000000
H    -5.291000000     3.888000000    -5.170000000
C    -6.008000000     4.606000000    -3.318000000
H    -7.066000000     4.527000000    -3.555000000
C    -5.566000000     4.817000000    -2.000000000
H    -6.261000000     5.041000000    -1.195000000
C    -4.223000000     5.035000000    -1.626000000
C    -3.218000000     4.776000000    -2.606000000
H    -2.193000000     5.081000000    -2.413000000
O     2.493000000     7.223000000    -3.625000000
H     3.290000000     7.287000000    -3.098000000
H     1.983000000     7.996000000    -3.382000000
O     1.046000000     9.915000000    -2.936000000
H     0.938000000     9.672000000    -2.017000000
H     0.404000000    10.611000000    -3.077000000
O     4.326000000     4.285000000     1.530000000
H     3.577000000     4.703000000     1.955000000
H     3.989000000     3.442000000     1.227000000
O     3.602000000     6.263000000    -0.219000000
H     4.013000000     5.608000000     0.344000000
H     4.234000000     6.403000000    -0.925000000
O    -0.602000000     7.042000000    -3.771000000
H    -0.945000000     6.361000000    -4.349000000
H    -0.426000000     6.590000000    -2.945000000
O    -3.067000000     7.901000000     4.815000000
H    -3.066000000     8.674000000     4.249000000
H    -2.486000000     7.281000000     4.374000000
O    -1.877000000     7.677000000    -0.539000000
H    -2.585000000     7.101000000    -0.250000000
H    -1.217000000     7.083000000    -0.898000000
O     2.034000000     4.713000000    -2.587000000
H     1.350000000     4.987000000    -1.976000000
H     2.171000000     5.474000000    -3.151000000
O     1.927000000     5.038000000     2.496000000
H     1.527000000     5.507000000     1.764000000
H     1.309000000     5.148000000     3.218000000
O    -0.925000000    10.403000000    -0.320000000
H    -1.290000000    10.471000000     0.562000000
H    -1.255000000     9.568000000    -0.653000000
O    -2.984000000     8.859000000    -3.251000000
H    -3.545000000     8.797000000    -2.478000000
H    -2.260000000     8.259000000    -3.071000000
O     4.706000000     3.629000000    -2.701000000
H     4.844000000     2.718000000    -2.958000000
H     3.765000000     3.768000000    -2.808000000
O     1.605000000     8.753000000     1.940000000
H     2.005000000     7.901000000     2.117000000
H     1.458000000     8.756000000     0.994000000
O     4.163000000     7.461000000     3.830000000
H     3.509000000     6.776000000     3.968000000
H     4.262000000     7.874000000     4.688000000
O     5.032000000     6.349000000    -2.640000000
H     4.872000000     5.408000000    -2.576000000
H     5.968000000     6.446000000    -2.467000000
O     2.811000000     1.963000000     0.923000000
H     2.319000000     1.810000000     0.117000000
H     2.199000000     1.740000000     1.624000000
O     3.807000000     9.953000000    -0.529000000
H     2.936000000     9.557000000    -0.514000000
H     3.747000000    10.687000000     0.083000000
O     1.566000000     8.070000000    -0.654000000
H     2.366000000     7.596000000    -0.425000000
H     0.896000000     7.389000000    -0.722000000
O    -0.951000000     7.123000000     3.134000000
H    -0.988000000     8.056000000     2.921000000
H    -0.734000000     6.697000000     2.305000000
