201
-1230.63374
C     2.455000000     0.265000000     4.472000000
H     2.891000000    -0.662000000     4.106000000
C     1.021000000     0.318000000     4.646000000
C     0.505000000     1.565000000     5.193000000
H    -0.579000000     1.626000000     5.253000000
C     0.175000000    -0.835000000     4.152000000
O     0.708000000    -2.186000000     4.364000000
H    -0.027000000    -0.643000000     3.088000000
O    -1.168000000    -0.743000000     4.684000000
C    -2.232000000    -0.989000000     3.930000000
C    -2.984000000     0.085000000     3.530000000
H    -2.797000000     1.079000000     3.929000000
C    -3.956000000    -0.143000000     2.544000000
O    -4.712000000     0.876000000     2.096000000
C    -4.154000000    -1.408000000     1.888000000
C    -5.264000000    -1.697000000     0.929000000
H    -5.605000000    -2.733000000     0.895000000
C    -4.695000000    -1.485000000    -0.430000000
C    -4.182000000    -2.549000000    -1.153000000
H    -4.156000000    -3.554000000    -0.739000000
H    -6.188000000    -1.146000000     1.121000000
C    -3.314000000    -2.384000000     2.261000000
H    -3.487000000    -3.420000000     1.979000000
C    -2.359000000    -2.266000000     3.297000000
C    -1.643000000    -3.542000000     3.726000000
H    -2.235000000    -4.439000000     3.537000000
H    -1.406000000    -3.531000000     4.792000000
C    -0.397000000    -3.714000000     2.891000000
C    -0.400000000    -4.517000000     1.753000000
H    -1.344000000    -4.962000000     1.450000000
C     0.748000000    -2.999000000     3.238000000
C     1.860000000    -3.074000000     2.396000000
H     2.791000000    -2.554000000     2.608000000
C     1.878000000    -3.857000000     1.283000000
O     2.979000000    -3.962000000     0.441000000
C     2.899000000    -3.150000000    -0.747000000
C     4.235000000    -2.353000000    -1.022000000
C     4.508000000    -1.962000000    -2.318000000
H     4.017000000    -2.359000000    -3.203000000
C     5.025000000    -1.891000000     0.085000000
H     4.711000000    -2.217000000     1.073000000
O     2.546000000    -4.050000000    -1.818000000
H     2.117000000    -2.379000000    -0.680000000
C     0.717000000    -4.664000000     0.985000000
C     0.640000000    -5.512000000    -0.306000000
H    -0.137000000    -6.267000000    -0.170000000
H     1.597000000    -6.025000000    -0.415000000
C     0.247000000    -4.700000000    -1.515000000
C    -1.061000000    -4.553000000    -1.941000000
H    -1.830000000    -5.006000000    -1.320000000
C     1.282000000    -3.970000000    -2.243000000
C     0.926000000    -3.178000000    -3.286000000
H     1.698000000    -2.505000000    -3.649000000
C    -0.392000000    -3.033000000    -3.640000000
O    -0.694000000    -1.977000000    -4.390000000
C    -1.258000000    -0.720000000    -3.991000000
C    -0.575000000     0.502000000    -4.693000000
C     0.633000000     0.316000000    -5.333000000
H     0.992000000    -0.704000000    -5.442000000
C    -1.141000000     1.814000000    -4.465000000
H    -2.114000000     1.970000000    -4.008000000
O    -2.730000000    -0.729000000    -4.018000000
H    -1.119000000    -0.642000000    -2.902000000
C    -1.415000000    -3.654000000    -2.971000000
C    -2.912000000    -3.512000000    -3.180000000
H    -3.465000000    -4.437000000    -3.005000000
H    -3.021000000    -3.447000000    -4.265000000
C    -3.577000000    -2.350000000    -2.392000000
C    -3.471000000    -1.048000000    -2.910000000
C    -4.037000000    -0.034000000    -2.164000000
H    -3.929000000     0.979000000    -2.542000000
C    -4.609000000    -0.179000000    -0.937000000
O    -5.004000000     1.035000000    -0.259000000
C    -4.211000000     1.477000000     0.869000000
H    -3.203000000     1.085000000     0.670000000
C    -4.032000000     3.021000000     0.936000000
C    -3.717000000     3.590000000     2.134000000
H    -3.784000000     3.035000000     3.066000000
C    -3.933000000     3.744000000    -0.247000000
H    -4.058000000     3.228000000    -1.195000000
C    -3.571000000     5.129000000    -0.212000000
O    -3.535000000     5.868000000    -1.385000000
C    -3.264000000     5.723000000     1.023000000
H    -2.911000000     6.750000000     1.041000000
C    -3.214000000     4.919000000     2.173000000
O    -2.929000000     5.547000000     3.401000000
C    -2.448000000     4.980000000     4.575000000
C    -1.061000000     4.726000000     4.615000000
H    -0.462000000     5.081000000     3.780000000
C    -3.312000000     4.646000000     5.678000000
H    -4.346000000     4.957000000     5.550000000
C    -2.743000000     4.115000000     6.848000000
H    -3.362000000     3.838000000     7.698000000
C    -1.383000000     3.807000000     6.792000000
H    -0.958000000     3.230000000     7.610000000
C    -0.515000000     4.042000000     5.726000000
O     0.802000000     3.787000000     5.793000000
C     1.381000000     2.616000000     5.441000000
C     2.757000000     2.494000000     5.249000000
H     3.376000000     3.378000000     5.381000000
C     3.294000000     1.321000000     4.786000000
O     4.701000000     1.340000000     4.848000000
C     5.419000000     0.282000000     4.273000000
C     5.650000000     0.422000000     2.927000000
H     5.385000000     1.321000000     2.377000000
C     5.676000000    -0.926000000     4.955000000
H     5.455000000    -0.987000000     6.017000000
C     6.207000000    -2.030000000     4.282000000
H     6.446000000    -2.944000000     4.819000000
C     6.636000000    -1.825000000     2.959000000
H     7.135000000    -2.671000000     2.494000000
C     6.335000000    -0.658000000     2.303000000
O     6.797000000    -0.488000000     0.961000000
C     6.115000000    -1.044000000    -0.079000000
C     6.532000000    -0.893000000    -1.408000000
H     7.427000000    -0.339000000    -1.681000000
C     5.700000000    -1.262000000    -2.511000000
O     6.091000000    -0.934000000    -3.785000000
C     5.211000000    -0.913000000    -4.887000000
C     4.363000000     0.146000000    -5.028000000
H     4.246000000     0.901000000    -4.255000000
C     5.156000000    -1.987000000    -5.809000000
H     5.900000000    -2.777000000    -5.747000000
C     4.179000000    -1.937000000    -6.828000000
H     4.121000000    -2.738000000    -7.560000000
C     3.380000000    -0.849000000    -7.050000000
H     2.947000000    -0.760000000    -8.044000000
C     3.420000000     0.217000000    -6.067000000
O     2.643000000     1.370000000    -6.089000000
C     1.369000000     1.430000000    -5.712000000
C     0.884000000     2.675000000    -5.560000000
H     1.447000000     3.480000000    -6.024000000
C    -0.347000000     2.870000000    -4.899000000
O    -0.874000000     4.217000000    -4.951000000
C    -2.092000000     4.526000000    -4.472000000
C    -3.172000000     4.497000000    -5.311000000
H    -3.020000000     4.379000000    -6.381000000
C    -4.427000000     4.859000000    -4.828000000
H    -5.347000000     4.714000000    -5.388000000
C    -4.599000000     5.293000000    -3.517000000
H    -5.546000000     5.709000000    -3.182000000
C    -3.484000000     5.260000000    -2.630000000
C    -2.262000000     4.812000000    -3.077000000
H    -1.441000000     4.928000000    -2.374000000
O     4.493000000     9.083000000    -2.296000000
H     4.356000000     9.872000000    -1.771000000
H     3.961000000     8.414000000    -1.866000000
O     5.724000000     6.271000000    -2.511000000
H     6.570000000     6.132000000    -2.086000000
H     5.593000000     7.218000000    -2.480000000
O     0.601000000     8.449000000    -3.223000000
H     0.189000000     8.259000000    -2.381000000
H    -0.128000000     8.501000000    -3.841000000
O     7.306000000     4.192000000     1.507000000
H     7.078000000     5.104000000     1.328000000
H     6.880000000     3.697000000     0.808000000
O     1.546000000     6.233000000    -4.431000000
H     1.589000000     5.523000000    -3.791000000
H     1.649000000     7.031000000    -3.913000000
O     2.050000000    10.766000000    -3.437000000
H     2.697000000    10.344000000    -2.871000000
H     1.353000000    10.117000000    -3.531000000
O    -0.421000000     7.365000000    -0.588000000
H     0.175000000     6.660000000    -0.841000000
H    -0.162000000     7.588000000     0.306000000
O     3.819000000     5.375000000    -5.929000000
H     3.421000000     5.297000000    -6.796000000
H     3.085000000     5.558000000    -5.344000000
O     6.112000000     3.097000000    -6.332000000
H     5.514000000     3.211000000    -5.593000000
H     6.669000000     2.362000000    -6.077000000
O     3.891000000     5.097000000     3.151000000
H     3.864000000     4.389000000     2.508000000
H     3.184000000     5.687000000     2.888000000
O    -2.732000000     8.616000000    -1.168000000
H    -1.870000000     8.201000000    -1.125000000
H    -2.963000000     8.590000000    -2.097000000
O    -0.582000000     6.934000000    -5.991000000
H    -0.439000000     6.297000000    -5.291000000
H     0.298000000     7.218000000    -6.240000000
O     6.209000000     3.503000000    -1.036000000
H     6.905000000     4.001000000    -1.466000000
H     5.853000000     2.944000000    -1.726000000
O     1.001000000     8.625000000     1.387000000
H     0.395000000     9.099000000     1.956000000
H     1.236000000     9.258000000     0.708000000
O     4.274000000     8.441000000     1.277000000
H     3.993000000     8.018000000     0.466000000
H     3.494000000     8.438000000     1.831000000
O     4.599000000     3.546000000    -3.418000000
H     4.736000000     4.438000000    -3.100000000
H     3.692000000     3.346000000    -3.187000000
O     3.990000000     3.477000000     0.871000000
H     3.303000000     3.061000000     0.351000000
H     4.608000000     3.816000000     0.223000000
O     3.370000000     7.169000000    -0.825000000
H     2.565000000     6.671000000    -0.680000000
H     4.066000000     6.512000000    -0.802000000
O     1.408000000     5.969000000     2.197000000
H     1.237000000     6.901000000     2.063000000
H     1.292000000     5.578000000     1.331000000
