201
-1259.34251
C     1.258000000    -3.140000000     3.627000000
H     1.842000000    -3.539000000     2.802000000
C    -0.150000000    -3.179000000     3.590000000
C    -0.910000000    -2.566000000     4.577000000
H    -1.994000000    -2.529000000     4.508000000
C    -0.816000000    -3.486000000     2.260000000
O    -0.114000000    -4.541000000     1.583000000
H    -0.657000000    -2.564000000     1.681000000
O    -2.190000000    -3.753000000     2.475000000
C    -3.081000000    -3.137000000     1.608000000
C    -3.734000000    -1.973000000     1.976000000
H    -3.570000000    -1.489000000     2.935000000
C    -4.397000000    -1.212000000     1.069000000
O    -4.791000000     0.100000000     1.494000000
C    -4.592000000    -1.696000000    -0.280000000
C    -5.422000000    -0.982000000    -1.362000000
H    -5.937000000    -1.613000000    -2.090000000
C    -4.475000000    -0.080000000    -2.062000000
C    -3.806000000    -0.454000000    -3.266000000
H    -3.878000000    -1.474000000    -3.636000000
H    -6.176000000    -0.370000000    -0.861000000
C    -3.929000000    -2.842000000    -0.635000000
H    -4.076000000    -3.224000000    -1.642000000
C    -3.196000000    -3.612000000     0.310000000
C    -2.520000000    -4.876000000    -0.162000000
H    -3.134000000    -5.217000000    -0.998000000
H    -2.460000000    -5.682000000     0.572000000
C    -1.186000000    -4.576000000    -0.727000000
C    -1.032000000    -4.411000000    -2.116000000
H    -1.858000000    -4.274000000    -2.809000000
C    -0.101000000    -4.489000000     0.195000000
C     1.156000000    -4.233000000    -0.312000000
H     1.931000000    -4.022000000     0.420000000
C     1.332000000    -4.125000000    -1.686000000
O     2.589000000    -3.856000000    -2.101000000
C     2.817000000    -2.404000000    -2.220000000
C     4.112000000    -2.087000000    -1.615000000
C     4.807000000    -0.929000000    -2.042000000
H     4.415000000    -0.296000000    -2.835000000
C     4.711000000    -2.880000000    -0.560000000
H     4.152000000    -3.761000000    -0.254000000
O     2.778000000    -2.023000000    -3.643000000
H     2.009000000    -1.907000000    -1.664000000
C     0.275000000    -4.221000000    -2.619000000
C     0.524000000    -3.956000000    -4.102000000
H    -0.249000000    -4.440000000    -4.703000000
H     1.439000000    -4.452000000    -4.430000000
C     0.534000000    -2.431000000    -4.341000000
C    -0.698000000    -1.844000000    -4.676000000
H    -1.570000000    -2.493000000    -4.680000000
C     1.604000000    -1.640000000    -4.227000000
C     1.567000000    -0.279000000    -4.478000000
H     2.452000000     0.335000000    -4.336000000
C     0.326000000     0.395000000    -4.668000000
O     0.393000000     1.764000000    -4.684000000
C    -0.178000000     2.283000000    -3.503000000
C     0.641000000     3.536000000    -3.050000000
C     2.010000000     3.489000000    -2.740000000
H     2.454000000     2.499000000    -2.804000000
C    -0.032000000     4.754000000    -2.912000000
H    -1.091000000     4.902000000    -3.110000000
O    -1.583000000     2.539000000    -3.672000000
H    -0.137000000     1.496000000    -2.734000000
C    -0.797000000    -0.420000000    -4.832000000
C    -2.179000000     0.108000000    -5.108000000
H    -2.784000000    -0.502000000    -5.783000000
H    -2.153000000     1.099000000    -5.565000000
C    -2.862000000     0.428000000    -3.828000000
C    -2.565000000     1.676000000    -3.283000000
C    -3.241000000     2.080000000    -2.101000000
H    -3.088000000     3.044000000    -1.623000000
C    -4.214000000     1.268000000    -1.542000000
O    -4.745000000     1.661000000    -0.332000000
C    -4.049000000     1.179000000     0.831000000
H    -3.098000000     0.719000000     0.524000000
C    -3.627000000     2.208000000     1.879000000
C    -3.716000000     1.975000000     3.236000000
H    -4.037000000     0.991000000     3.567000000
C    -3.172000000     3.461000000     1.375000000
H    -3.054000000     3.586000000     0.302000000
C    -2.969000000     4.462000000     2.329000000
O    -2.475000000     5.693000000     1.965000000
C    -3.154000000     4.306000000     3.688000000
H    -2.991000000     5.098000000     4.414000000
C    -3.374000000     2.989000000     4.139000000
O    -3.414000000     2.758000000     5.503000000
C    -3.255000000     1.472000000     5.985000000
C    -2.022000000     0.848000000     5.992000000
H    -1.128000000     1.361000000     5.644000000
C    -4.372000000     0.784000000     6.518000000
H    -5.351000000     1.251000000     6.447000000
C    -4.288000000    -0.571000000     6.886000000
H    -5.142000000    -1.085000000     7.319000000
C    -3.026000000    -1.158000000     7.050000000
H    -2.896000000    -2.138000000     7.501000000
C    -1.940000000    -0.431000000     6.546000000
O    -0.771000000    -1.164000000     6.651000000
C    -0.204000000    -1.924000000     5.658000000
C     1.160000000    -1.905000000     5.656000000
H     1.687000000    -1.416000000     6.471000000
C     1.943000000    -2.478000000     4.619000000
O     3.306000000    -2.327000000     4.709000000
C     4.106000000    -3.213000000     4.014000000
C     4.742000000    -2.676000000     2.869000000
H     4.558000000    -1.673000000     2.491000000
C     4.271000000    -4.565000000     4.362000000
H     3.852000000    -5.088000000     5.217000000
C     5.212000000    -5.357000000     3.697000000
H     5.503000000    -6.374000000     3.945000000
C     5.882000000    -4.752000000     2.602000000
H     6.728000000    -5.276000000     2.163000000
C     5.690000000    -3.458000000     2.185000000
O     6.458000000    -3.123000000     1.114000000
C     5.888000000    -2.420000000     0.052000000
C     6.510000000    -1.309000000    -0.347000000
H     7.377000000    -0.937000000     0.195000000
C     5.982000000    -0.565000000    -1.407000000
O     6.760000000     0.428000000    -1.879000000
C     6.302000000     1.605000000    -2.404000000
C     5.263000000     2.304000000    -1.753000000
H     4.860000000     2.083000000    -0.767000000
C     6.857000000     2.076000000    -3.625000000
H     7.668000000     1.440000000    -3.969000000
C     6.311000000     3.218000000    -4.247000000
H     6.734000000     3.517000000    -5.202000000
C     5.309000000     3.978000000    -3.622000000
H     4.867000000     4.883000000    -4.029000000
C     4.850000000     3.518000000    -2.386000000
O     3.909000000     4.279000000    -1.749000000
C     2.661000000     4.576000000    -2.192000000
C     1.960000000     5.780000000    -2.009000000
H     2.433000000     6.524000000    -1.372000000
C     0.615000000     5.768000000    -2.252000000
O    -0.018000000     6.875000000    -1.761000000
C    -1.230000000     6.800000000    -1.172000000
C    -2.398000000     7.049000000    -1.880000000
H    -2.344000000     7.427000000    -2.897000000
C    -3.602000000     6.782000000    -1.238000000
H    -4.532000000     7.009000000    -1.754000000
C    -3.650000000     6.373000000     0.062000000
H    -4.628000000     6.158000000     0.486000000
C    -2.451000000     6.198000000     0.726000000
C    -1.246000000     6.377000000     0.106000000
H    -0.340000000     5.992000000     0.568000000
O     5.395000000     6.089000000     4.464000000
H     5.613000000     6.948000000     4.825000000
H     4.789000000     5.709000000     5.101000000
O     3.066000000    -0.798000000     9.151000000
H     2.497000000    -1.568000000     9.138000000
H     2.755000000    -0.259000000     8.423000000
O     4.353000000     5.352000000     1.955000000
H     3.554000000     5.878000000     1.938000000
H     4.767000000     5.573000000     2.789000000
O     2.269000000     1.147000000     7.262000000
H     1.695000000     1.884000000     7.469000000
H     2.366000000     1.179000000     6.310000000
O     3.151000000     4.098000000     5.359000000
H     3.041000000     3.151000000     5.450000000
H     2.513000000     4.473000000     5.965000000
O     4.031000000     4.842000000     8.595000000
H     4.931000000     5.167000000     8.633000000
H     4.111000000     3.898000000     8.732000000
O     5.091000000     0.017000000     5.735000000
H     4.262000000     0.438000000     5.504000000
H     4.906000000    -0.921000000     5.683000000
O     5.623000000     0.536000000     2.753000000
H     5.386000000     0.253000000     3.636000000
H     4.941000000     1.161000000     2.510000000
O     0.336000000     2.992000000     7.100000000
H     0.529000000     2.643000000     6.230000000
H     0.097000000     3.906000000     6.943000000
O     1.308000000     4.954000000     3.703000000
H     2.163000000     4.834000000     4.115000000
H     0.686000000     4.589000000     4.332000000
O     1.868000000     6.869000000     2.045000000
H     1.527000000     6.220000000     2.660000000
H     1.416000000     7.680000000     2.276000000
O    -0.718000000     5.439000000     6.483000000
H    -1.611000000     5.435000000     6.829000000
H    -0.635000000     6.285000000     6.044000000
O     6.016000000     2.834000000     5.510000000
H     5.813000000     1.944000000     5.799000000
H     5.184000000     3.174000000     5.179000000
O     8.393000000     2.408000000     4.439000000
H     8.707000000     3.272000000     4.705000000
H     7.445000000     2.448000000     4.564000000
O     2.270000000     6.738000000     6.066000000
H     2.833000000     6.983000000     5.332000000
H     1.470000000     7.247000000     5.934000000
O     7.624000000    -0.732000000     5.142000000
H     7.858000000    -0.058000000     4.505000000
H     6.797000000    -0.430000000     5.518000000
O    -0.402000000    -0.290000000     9.255000000
H    -0.361000000    -0.680000000     8.382000000
H     0.274000000    -0.749000000     9.754000000
O     4.037000000     2.453000000     2.000000000
H     3.147000000     2.529000000     1.657000000
H     4.451000000     3.287000000     1.779000000
O    -1.318000000     2.210000000     8.975000000
H    -0.853000000     2.458000000     8.177000000
H    -1.020000000     1.320000000     9.160000000
