201
-1253.96780
C     0.358000000    -3.539000000     4.142000000
H     0.562000000    -4.372000000     3.475000000
C    -0.674000000    -2.670000000     4.021000000
C    -0.891000000    -1.662000000     4.949000000
H    -1.699000000    -0.950000000     4.802000000
C    -1.631000000    -2.797000000     2.809000000
O    -1.725000000    -4.167000000     2.433000000
H    -1.163000000    -2.080000000     2.120000000
O    -2.954000000    -2.287000000     3.151000000
C    -3.692000000    -1.607000000     2.194000000
C    -3.609000000    -0.207000000     2.270000000
H    -2.996000000     0.261000000     3.036000000
C    -4.316000000     0.593000000     1.327000000
O    -4.147000000     2.010000000     1.419000000
C    -4.879000000     0.001000000     0.163000000
C    -5.427000000     0.890000000    -0.884000000
H    -6.188000000     0.363000000    -1.462000000
C    -4.336000000     1.406000000    -1.836000000
C    -4.054000000     0.661000000    -2.998000000
H    -4.562000000    -0.291000000    -3.130000000
H    -5.934000000     1.773000000    -0.488000000
C    -4.739000000    -1.400000000     0.002000000
H    -5.131000000    -1.845000000    -0.909000000
C    -4.192000000    -2.175000000     1.035000000
C    -4.118000000    -3.732000000     0.873000000
H    -4.945000000    -4.063000000     0.242000000
H    -4.240000000    -4.191000000     1.856000000
C    -2.749000000    -4.088000000     0.312000000
C    -2.592000000    -4.003000000    -1.100000000
H    -3.398000000    -3.581000000    -1.695000000
C    -1.633000000    -4.347000000     1.089000000
C    -0.417000000    -4.699000000     0.503000000
H     0.496000000    -4.920000000     1.050000000
C    -0.292000000    -4.622000000    -0.909000000
O     0.972000000    -4.661000000    -1.487000000
C     1.545000000    -3.343000000    -1.741000000
C     2.946000000    -3.116000000    -1.106000000
C     3.923000000    -2.436000000    -1.835000000
H     3.579000000    -1.993000000    -2.766000000
C     3.333000000    -3.898000000     0.030000000
H     2.565000000    -4.537000000     0.459000000
O     1.452000000    -3.153000000    -3.173000000
H     0.883000000    -2.602000000    -1.270000000
C    -1.404000000    -4.281000000    -1.706000000
C    -1.341000000    -4.141000000    -3.196000000
H    -2.313000000    -4.421000000    -3.606000000
H    -0.647000000    -4.913000000    -3.535000000
C    -0.975000000    -2.736000000    -3.575000000
C    -1.901000000    -1.848000000    -3.996000000
H    -2.965000000    -2.012000000    -3.843000000
C     0.414000000    -2.374000000    -3.720000000
C     0.791000000    -1.172000000    -4.270000000
H     1.833000000    -0.884000000    -4.379000000
C    -0.198000000    -0.319000000    -4.761000000
O     0.179000000     0.977000000    -5.120000000
C    -0.092000000     2.028000000    -4.137000000
C     1.085000000     2.920000000    -3.834000000
C     2.419000000     2.418000000    -3.564000000
H     2.522000000     1.350000000    -3.736000000
C     0.947000000     4.263000000    -3.625000000
H    -0.015000000     4.758000000    -3.729000000
O    -1.303000000     2.711000000    -4.461000000
H    -0.243000000     1.520000000    -3.173000000
C    -1.563000000    -0.674000000    -4.613000000
C    -2.703000000     0.231000000    -5.075000000
H    -3.646000000    -0.246000000    -5.350000000
H    -2.420000000     0.914000000    -5.879000000
C    -3.065000000     1.094000000    -3.899000000
C    -2.389000000     2.354000000    -3.743000000
C    -2.645000000     3.048000000    -2.571000000
H    -2.122000000     3.989000000    -2.418000000
C    -3.597000000     2.614000000    -1.661000000
O    -3.718000000     3.325000000    -0.432000000
C    -3.117000000     2.654000000     0.707000000
H    -2.498000000     1.811000000     0.368000000
C    -2.208000000     3.545000000     1.585000000
C    -1.749000000     3.130000000     2.823000000
H    -2.000000000     2.125000000     3.153000000
C    -1.917000000     4.853000000     1.110000000
H    -2.298000000     5.131000000     0.130000000
C    -0.921000000     5.633000000     1.752000000
O    -0.396000000     6.817000000     1.315000000
C    -0.426000000     5.155000000     2.899000000
H     0.283000000     5.748000000     3.471000000
C    -0.826000000     3.957000000     3.494000000
O    -0.386000000     3.671000000     4.738000000
C    -0.985000000     2.717000000     5.540000000
C    -0.399000000     1.467000000     5.762000000
H     0.534000000     1.163000000     5.294000000
C    -2.078000000     3.111000000     6.274000000
H    -2.484000000     4.095000000     6.052000000
C    -2.689000000     2.231000000     7.148000000
H    -3.496000000     2.620000000     7.764000000
C    -2.108000000     1.018000000     7.391000000
H    -2.634000000     0.415000000     8.127000000
C    -0.895000000     0.666000000     6.821000000
O    -0.216000000    -0.537000000     7.016000000
C    -0.032000000    -1.468000000     6.007000000
C     0.910000000    -2.477000000     6.286000000
H     1.530000000    -2.456000000     7.179000000
C     1.160000000    -3.474000000     5.357000000
O     2.275000000    -4.362000000     5.532000000
C     2.768000000    -4.999000000     4.437000000
C     3.709000000    -4.424000000     3.624000000
H     4.042000000    -3.399000000     3.760000000
C     2.333000000    -6.330000000     4.209000000
H     1.678000000    -6.838000000     4.912000000
C     2.771000000    -6.960000000     3.051000000
H     2.432000000    -7.946000000     2.746000000
C     3.657000000    -6.326000000     2.219000000
H     4.033000000    -6.852000000     1.345000000
C     4.156000000    -5.082000000     2.526000000
O     5.095000000    -4.491000000     1.633000000
C     4.661000000    -3.843000000     0.513000000
C     5.595000000    -3.123000000    -0.217000000
H     6.596000000    -3.211000000     0.198000000
C     5.257000000    -2.457000000    -1.369000000
O     6.273000000    -2.026000000    -2.117000000
C     6.170000000    -0.869000000    -2.891000000
C     5.553000000     0.294000000    -2.431000000
H     5.192000000     0.399000000    -1.411000000
C     6.693000000    -0.803000000    -4.214000000
H     7.196000000    -1.683000000    -4.606000000
C     6.435000000     0.327000000    -5.013000000
H     6.791000000     0.332000000    -6.040000000
C     5.704000000     1.418000000    -4.559000000
H     5.471000000     2.236000000    -5.236000000
C     5.300000000     1.439000000    -3.247000000
O     4.646000000     2.538000000    -2.794000000
C     3.472000000     3.165000000    -3.134000000
C     3.271000000     4.471000000    -2.852000000
H     4.011000000     5.093000000    -2.354000000
C     2.019000000     5.052000000    -3.087000000
O     1.931000000     6.385000000    -2.769000000
C     0.902000000     6.903000000    -2.123000000
C     0.018000000     7.769000000    -2.753000000
H     0.181000000     8.047000000    -3.791000000
C    -1.124000000     8.161000000    -2.060000000
H    -1.897000000     8.640000000    -2.655000000
C    -1.223000000     7.851000000    -0.684000000
H    -2.056000000     8.201000000    -0.079000000
C    -0.285000000     7.055000000    -0.050000000
C     0.811000000     6.552000000    -0.764000000
H     1.572000000     5.915000000    -0.320000000
O     4.185000000     4.220000000     3.633000000
H     4.325000000     3.454000000     3.077000000
H     3.703000000     3.883000000     4.388000000
O     8.882000000     1.763000000    -0.412000000
H     8.908000000     0.907000000     0.016000000
H     8.040000000     2.136000000    -0.150000000
O     2.218000000     4.059000000     6.025000000
H     2.319000000     4.677000000     6.749000000
H     1.315000000     4.179000000     5.732000000
O     8.015000000    -2.548000000     2.793000000
H     8.310000000    -3.446000000     2.643000000
H     7.845000000    -2.505000000     3.734000000
O     6.838000000     2.221000000     4.811000000
H     6.528000000     1.517000000     4.242000000
H     6.118000000     2.369000000     5.424000000
O     9.503000000     2.131000000     5.502000000
H     9.834000000     1.306000000     5.858000000
H     8.581000000     1.957000000     5.312000000
O     6.771000000     6.062000000     2.857000000
H     6.036000000     5.804000000     3.414000000
H     7.289000000     5.264000000     2.760000000
O     7.873000000     3.264000000     2.518000000
H     7.140000000     2.997000000     3.073000000
H     7.473000000     3.452000000     1.669000000
O     6.469000000     2.893000000     0.104000000
H     5.774000000     3.513000000    -0.114000000
H     6.084000000     2.326000000     0.772000000
O     7.121000000    -2.394000000     5.360000000
H     7.485000000    -3.270000000     5.488000000
H     7.596000000    -1.844000000     5.983000000
O     3.449000000     6.589000000     2.368000000
H     4.192000000     6.744000000     1.785000000
H     3.641000000     5.747000000     2.781000000
O     7.151000000    -0.218000000     1.487000000
H     6.331000000     0.201000000     1.747000000
H     7.163000000    -1.043000000     1.973000000
O     7.413000000     4.027000000    -2.871000000
H     7.433000000     3.587000000    -3.721000000
H     6.811000000     3.502000000    -2.344000000
O     4.090000000    -0.008000000     7.717000000
H     3.917000000    -0.624000000     7.005000000
H     4.515000000     0.737000000     7.291000000
O     8.651000000    -1.147000000    -0.797000000
H     7.822000000    -1.248000000    -1.265000000
H     8.431000000    -1.312000000     0.120000000
O     9.875000000     0.243000000     2.188000000
H    10.243000000     1.123000000     2.264000000
H     8.929000000     0.382000000     2.141000000
O    10.482000000     3.401000000     3.442000000
H    10.336000000     2.834000000     4.200000000
H     9.623000000     3.473000000     3.028000000
O     4.473000000    -1.132000000     5.284000000
H     5.253000000    -1.637000000     5.512000000
H     4.769000000    -0.531000000     4.600000000
O     4.542000000     2.558000000     6.594000000
H     3.776000000     3.114000000     6.451000000
H     4.931000000     2.889000000     7.403000000
