201
-1240.95138
C    -0.143000000    -2.058000000     4.475000000
H     0.440000000    -2.795000000     3.929000000
C    -1.522000000    -1.867000000     4.213000000
C    -2.173000000    -0.935000000     5.010000000
H    -3.241000000    -0.751000000     4.926000000
C    -2.069000000    -2.422000000     2.927000000
O    -2.013000000    -3.860000000     2.763000000
H    -1.492000000    -1.910000000     2.143000000
O    -3.403000000    -1.962000000     2.852000000
C    -3.840000000    -1.384000000     1.678000000
C    -4.014000000    -0.044000000     1.654000000
H    -3.692000000     0.557000000     2.501000000
C    -4.465000000     0.486000000     0.478000000
O    -4.530000000     1.845000000     0.399000000
C    -4.770000000    -0.256000000    -0.715000000
C    -5.211000000     0.477000000    -1.934000000
H    -5.802000000    -0.148000000    -2.607000000
C    -4.090000000     0.987000000    -2.716000000
C    -3.530000000     0.104000000    -3.704000000
H    -4.026000000    -0.831000000    -3.951000000
H    -5.881000000     1.328000000    -1.795000000
C    -4.714000000    -1.634000000    -0.636000000
H    -5.018000000    -2.224000000    -1.497000000
C    -4.205000000    -2.183000000     0.553000000
C    -4.096000000    -3.670000000     0.595000000
H    -4.573000000    -4.089000000    -0.294000000
H    -4.567000000    -4.097000000     1.482000000
C    -2.660000000    -4.133000000     0.359000000
C    -2.250000000    -4.462000000    -0.908000000
H    -2.854000000    -4.393000000    -1.809000000
C    -1.700000000    -4.242000000     1.418000000
C    -0.414000000    -4.606000000     1.212000000
H     0.321000000    -4.655000000     2.012000000
C    -0.004000000    -4.695000000    -0.131000000
O     1.361000000    -4.795000000    -0.428000000
C     2.038000000    -3.623000000    -0.962000000
C     3.446000000    -3.345000000    -0.291000000
C     4.434000000    -2.822000000    -1.061000000
H     4.302000000    -2.711000000    -2.135000000
C     3.590000000    -3.548000000     1.052000000
H     2.754000000    -3.907000000     1.648000000
O     2.244000000    -3.768000000    -2.379000000
H     1.359000000    -2.778000000    -0.777000000
C    -0.918000000    -4.649000000    -1.186000000
C    -0.453000000    -4.827000000    -2.629000000
H    -1.268000000    -5.323000000    -3.161000000
H     0.434000000    -5.463000000    -2.649000000
C    -0.028000000    -3.510000000    -3.326000000
C    -0.995000000    -2.777000000    -3.963000000
H    -2.020000000    -3.138000000    -4.000000000
C     1.308000000    -3.175000000    -3.176000000
C     1.683000000    -2.021000000    -3.824000000
H     2.718000000    -1.728000000    -3.671000000
C     0.742000000    -1.230000000    -4.449000000
O     1.111000000     0.088000000    -4.731000000
C     0.745000000     1.148000000    -3.776000000
C     1.845000000     2.083000000    -3.523000000
C     3.156000000     1.614000000    -3.492000000
H     3.318000000     0.539000000    -3.503000000
C     1.613000000     3.485000000    -3.541000000
H     0.639000000     3.954000000    -3.658000000
O    -0.351000000     1.868000000    -4.339000000
H     0.322000000     0.728000000    -2.852000000
C    -0.603000000    -1.557000000    -4.515000000
C    -1.627000000    -0.689000000    -5.234000000
H    -2.473000000    -1.308000000    -5.541000000
H    -1.254000000    -0.216000000    -6.144000000
C    -2.239000000     0.341000000    -4.265000000
C    -1.612000000     1.558000000    -3.943000000
C    -2.188000000     2.471000000    -3.084000000
H    -1.631000000     3.395000000    -2.950000000
C    -3.397000000     2.164000000    -2.449000000
O    -3.629000000     3.001000000    -1.430000000
C    -3.340000000     2.500000000    -0.113000000
H    -2.557000000     1.732000000    -0.210000000
C    -2.588000000     3.541000000     0.760000000
C    -2.871000000     3.578000000     2.106000000
H    -3.653000000     2.931000000     2.497000000
C    -1.786000000     4.470000000     0.135000000
H    -1.727000000     4.465000000    -0.950000000
C    -1.036000000     5.252000000     0.983000000
O    -0.076000000     6.132000000     0.575000000
C    -1.226000000     5.267000000     2.349000000
H    -0.625000000     5.973000000     2.916000000
C    -2.177000000     4.460000000     2.928000000
O    -2.454000000     4.618000000     4.267000000
C    -3.028000000     3.727000000     5.056000000
C    -2.360000000     2.629000000     5.586000000
H    -1.299000000     2.504000000     5.385000000
C    -4.426000000     3.794000000     5.347000000
H    -4.981000000     4.664000000     5.008000000
C    -5.062000000     2.877000000     6.198000000
H    -6.121000000     2.934000000     6.435000000
C    -4.362000000     1.704000000     6.512000000
H    -4.923000000     0.908000000     6.995000000
C    -3.031000000     1.582000000     6.279000000
O    -2.260000000     0.582000000     6.845000000
C    -1.546000000    -0.297000000     6.060000000
C    -0.237000000    -0.542000000     6.300000000
H     0.229000000    -0.084000000     7.169000000
C     0.447000000    -1.419000000     5.544000000
O     1.780000000    -1.540000000     5.805000000
C     2.368000000    -2.634000000     5.259000000
C     3.438000000    -2.485000000     4.371000000
H     3.678000000    -1.520000000     3.933000000
C     2.062000000    -3.916000000     5.796000000
H     1.370000000    -4.075000000     6.619000000
C     2.806000000    -4.994000000     5.347000000
H     2.577000000    -5.978000000     5.748000000
C     3.862000000    -4.900000000     4.442000000
H     4.371000000    -5.808000000     4.128000000
C     4.138000000    -3.570000000     4.004000000
O     5.076000000    -3.388000000     2.986000000
C     4.860000000    -3.298000000     1.645000000
C     5.944000000    -2.880000000     0.846000000
H     6.895000000    -2.620000000     1.305000000
C     5.713000000    -2.635000000    -0.508000000
O     6.693000000    -2.023000000    -1.214000000
C     6.571000000    -1.214000000    -2.336000000
C     6.090000000     0.109000000    -2.384000000
H     5.785000000     0.601000000    -1.464000000
C     6.723000000    -1.916000000    -3.537000000
H     6.993000000    -2.969000000    -3.549000000
C     6.513000000    -1.205000000    -4.744000000
H     6.649000000    -1.699000000    -5.703000000
C     6.119000000     0.145000000    -4.757000000
H     6.066000000     0.580000000    -5.752000000
C     5.914000000     0.804000000    -3.558000000
O     5.484000000     2.077000000    -3.611000000
C     4.200000000     2.508000000    -3.462000000
C     3.928000000     3.882000000    -3.410000000
H     4.773000000     4.556000000    -3.296000000
C     2.665000000     4.395000000    -3.364000000
O     2.427000000     5.709000000    -3.455000000
C     1.424000000     6.270000000    -2.791000000
C     0.560000000     7.181000000    -3.437000000
H     0.733000000     7.463000000    -4.473000000
C    -0.493000000     7.779000000    -2.696000000
H    -1.190000000     8.474000000    -3.158000000
C    -0.703000000     7.353000000    -1.341000000
H    -1.500000000     7.831000000    -0.778000000
C     0.154000000     6.522000000    -0.704000000
C     1.276000000     6.047000000    -1.358000000
H     2.061000000     5.490000000    -0.853000000
O     5.589000000     2.889000000     2.936000000
H     5.766000000     3.598000000     3.554000000
H     4.654000000     2.966000000     2.745000000
O     4.447000000     5.485000000    -0.166000000
H     4.377000000     4.571000000    -0.439000000
H     5.357000000     5.720000000    -0.346000000
O    -1.401000000     4.268000000     7.994000000
H    -0.974000000     4.416000000     8.837000000
H    -0.682000000     4.246000000     7.362000000
O     2.649000000     6.169000000     3.119000000
H     2.857000000     5.375000000     2.626000000
H     1.731000000     6.345000000     2.913000000
O     6.543000000     5.058000000     4.553000000
H     7.102000000     4.436000000     5.018000000
H     6.327000000     5.723000000     5.207000000
O     8.076000000    -0.860000000     3.770000000
H     7.214000000    -0.664000000     3.403000000
H     8.081000000    -0.421000000     4.620000000
O     5.123000000     6.882000000     2.140000000
H     5.371000000     6.265000000     2.828000000
H     4.640000000     6.352000000     1.506000000
O     2.959000000     1.023000000     6.009000000
H     2.890000000     1.489000000     5.175000000
H     2.738000000     0.117000000     5.795000000
O     1.037000000     4.462000000     6.727000000
H     1.909000000     4.311000000     6.364000000
H     0.696000000     5.206000000     6.232000000
O     6.409000000     3.122000000     0.096000000
H     6.274000000     3.299000000     1.027000000
H     5.536000000     2.913000000    -0.237000000
O     3.671000000     2.805000000    -0.141000000
H     3.328000000     3.241000000     0.639000000
H     3.034000000     2.115000000    -0.329000000
O     8.756000000     2.562000000     2.671000000
H     7.948000000     2.164000000     2.347000000
H     8.755000000     3.444000000     2.299000000
O     2.051000000     2.265000000     8.323000000
H     2.529000000     1.988000000     7.541000000
H     1.564000000     3.040000000     8.044000000
O     3.413000000     8.809000000     0.929000000
H     3.953000000     8.092000000     1.262000000
H     2.526000000     8.598000000     1.221000000
O     4.904000000     3.712000000     7.639000000
H     5.612000000     3.284000000     7.159000000
H     4.167000000     3.715000000     7.028000000
O     5.935000000     1.640000000     6.118000000
H     6.383000000     0.795000000     6.150000000
H     5.011000000     1.417000000     6.004000000
O     3.351000000     4.201000000     5.395000000
H     3.820000000     4.919000000     4.971000000
H     3.106000000     3.617000000     4.677000000
O     5.502000000    -0.052000000     2.854000000
H     5.482000000     0.850000000     3.171000000
H     4.983000000    -0.035000000     2.050000000
O     3.856000000     7.827000000     4.900000000
H     4.813000000     7.834000000     4.883000000
H     3.604000000     7.402000000     4.081000000
