201
-1249.94357
C     0.722000000    -2.610000000     3.555000000
H     1.039000000    -3.313000000     2.788000000
C    -0.639000000    -2.209000000     3.582000000
C    -0.989000000    -1.319000000     4.604000000
H    -2.025000000    -1.002000000     4.694000000
C    -1.498000000    -2.738000000     2.445000000
O    -1.179000000    -4.064000000     2.055000000
H    -1.289000000    -2.139000000     1.546000000
O    -2.821000000    -2.622000000     2.873000000
C    -3.645000000    -1.979000000     2.007000000
C    -3.823000000    -0.620000000     2.252000000
H    -3.386000000    -0.274000000     3.186000000
C    -4.445000000     0.136000000     1.275000000
O    -4.643000000     1.491000000     1.469000000
C    -4.837000000    -0.409000000     0.043000000
C    -5.411000000     0.446000000    -1.104000000
H    -5.903000000    -0.245000000    -1.791000000
C    -4.331000000     1.213000000    -1.895000000
C    -3.939000000     0.629000000    -3.092000000
H    -4.318000000    -0.343000000    -3.399000000
H    -6.123000000     1.139000000    -0.651000000
C    -4.670000000    -1.797000000    -0.153000000
H    -4.786000000    -2.213000000    -1.150000000
C    -4.100000000    -2.583000000     0.825000000
C    -3.832000000    -3.994000000     0.561000000
H    -4.590000000    -4.307000000    -0.161000000
H    -3.885000000    -4.695000000     1.397000000
C    -2.453000000    -4.169000000    -0.039000000
C    -2.344000000    -4.164000000    -1.443000000
H    -3.246000000    -4.044000000    -2.037000000
C    -1.260000000    -4.334000000     0.709000000
C    -0.014000000    -4.437000000     0.025000000
H     0.894000000    -4.467000000     0.622000000
C     0.091000000    -4.481000000    -1.318000000
O     1.356000000    -4.492000000    -1.840000000
C     1.943000000    -3.285000000    -2.191000000
C     3.382000000    -3.340000000    -1.695000000
C     4.350000000    -2.558000000    -2.344000000
H     4.145000000    -1.989000000    -3.247000000
C     3.805000000    -4.120000000    -0.612000000
H     3.089000000    -4.799000000    -0.158000000
O     1.901000000    -3.113000000    -3.609000000
H     1.416000000    -2.422000000    -1.758000000
C    -1.073000000    -4.201000000    -2.033000000
C    -0.957000000    -4.190000000    -3.564000000
H    -1.958000000    -4.460000000    -3.906000000
H    -0.303000000    -4.967000000    -3.966000000
C    -0.524000000    -2.806000000    -4.031000000
C    -1.533000000    -1.949000000    -4.327000000
H    -2.525000000    -2.375000000    -4.200000000
C     0.823000000    -2.402000000    -4.093000000
C     1.087000000    -1.038000000    -4.411000000
H     2.083000000    -0.637000000    -4.584000000
C     0.047000000    -0.173000000    -4.733000000
O     0.261000000     1.172000000    -4.986000000
C     0.098000000     2.006000000    -3.839000000
C     1.355000000     2.947000000    -3.582000000
C     2.603000000     2.340000000    -3.560000000
H     2.697000000     1.286000000    -3.810000000
C     1.089000000     4.246000000    -3.210000000
H     0.085000000     4.652000000    -3.118000000
O    -1.163000000     2.769000000    -4.034000000
H     0.024000000     1.325000000    -2.978000000
C    -1.253000000    -0.646000000    -4.668000000
C    -2.406000000     0.319000000    -5.058000000
H    -3.262000000    -0.307000000    -5.317000000
H    -2.084000000     1.031000000    -5.821000000
C    -2.874000000     1.106000000    -3.829000000
C    -2.235000000     2.230000000    -3.347000000
C    -2.711000000     2.908000000    -2.224000000
H    -2.142000000     3.791000000    -1.944000000
C    -3.784000000     2.431000000    -1.496000000
O    -4.125000000     3.015000000    -0.290000000
C    -3.656000000     2.384000000     0.874000000
H    -2.872000000     1.716000000     0.487000000
C    -3.158000000     3.380000000     1.882000000
C    -3.349000000     3.162000000     3.274000000
H    -4.031000000     2.406000000     3.655000000
C    -2.442000000     4.478000000     1.458000000
H    -2.167000000     4.477000000     0.406000000
C    -1.853000000     5.328000000     2.415000000
O    -0.983000000     6.254000000     2.000000000
C    -2.056000000     5.148000000     3.782000000
H    -1.681000000     5.908000000     4.462000000
C    -2.829000000     4.069000000     4.138000000
O    -3.012000000     3.917000000     5.488000000
C    -2.999000000     2.686000000     6.165000000
C    -1.895000000     1.867000000     5.951000000
H    -1.235000000     2.149000000     5.134000000
C    -3.898000000     2.493000000     7.211000000
H    -4.734000000     3.157000000     7.419000000
C    -3.654000000     1.388000000     7.994000000
H    -4.425000000     1.258000000     8.749000000
C    -2.623000000     0.542000000     7.789000000
H    -2.634000000    -0.327000000     8.442000000
C    -1.720000000     0.765000000     6.760000000
O    -0.470000000    -0.014000000     6.584000000
C    -0.072000000    -0.822000000     5.535000000
C     1.285000000    -1.218000000     5.499000000
H     1.973000000    -0.937000000     6.292000000
C     1.653000000    -2.091000000     4.444000000
O     2.972000000    -2.481000000     4.471000000
C     3.463000000    -3.654000000     3.889000000
C     4.103000000    -3.576000000     2.679000000
H     4.189000000    -2.603000000     2.201000000
C     3.506000000    -4.836000000     4.562000000
H     3.120000000    -4.772000000     5.576000000
C     4.013000000    -6.029000000     4.120000000
H     3.897000000    -6.961000000     4.666000000
C     4.550000000    -5.993000000     2.856000000
H     5.035000000    -6.871000000     2.436000000
C     4.621000000    -4.793000000     2.164000000
O     5.448000000    -4.696000000     1.037000000
C     5.113000000    -4.087000000    -0.104000000
C     6.045000000    -3.408000000    -0.838000000
H     7.073000000    -3.470000000    -0.489000000
C     5.646000000    -2.614000000    -1.903000000
O     6.641000000    -1.809000000    -2.506000000
C     6.431000000    -0.643000000    -3.215000000
C     5.705000000     0.404000000    -2.682000000
H     5.517000000     0.301000000    -1.616000000
C     6.899000000    -0.620000000    -4.501000000
H     7.415000000    -1.470000000    -4.940000000
C     6.652000000     0.491000000    -5.273000000
H     6.959000000     0.545000000    -6.314000000
C     5.971000000     1.596000000    -4.769000000
H     5.802000000     2.439000000    -5.433000000
C     5.592000000     1.562000000    -3.421000000
O     4.955000000     2.688000000    -2.846000000
C     3.633000000     3.102000000    -3.059000000
C     3.382000000     4.342000000    -2.552000000
H     4.206000000     4.886000000    -2.098000000
C     2.140000000     4.920000000    -2.539000000
O     1.964000000     6.158000000    -1.829000000
C     0.769000000     6.502000000    -1.291000000
C    -0.266000000     7.109000000    -2.000000000
H    -0.091000000     7.358000000    -3.043000000
C    -1.464000000     7.404000000    -1.399000000
H    -2.266000000     7.837000000    -1.991000000
C    -1.626000000     7.249000000    -0.026000000
H    -2.504000000     7.666000000     0.460000000
C    -0.660000000     6.559000000     0.680000000
C     0.554000000     6.184000000     0.075000000
H     1.389000000     5.791000000     0.650000000
O     7.475000000     2.331000000    -0.119000000
H     7.773000000     1.652000000     0.486000000
H     6.520000000     2.283000000    -0.082000000
O     1.174000000     3.504000000     4.904000000
H     0.722000000     4.242000000     5.314000000
H     1.624000000     3.067000000     5.627000000
O     9.270000000    -0.637000000     1.616000000
H     8.436000000    -1.101000000     1.695000000
H     9.538000000    -0.779000000     0.708000000
O     6.729000000     5.480000000    -3.319000000
H     6.830000000     5.055000000    -2.467000000
H     7.274000000     4.962000000    -3.911000000
O     7.048000000    -2.321000000     1.918000000
H     6.350000000    -2.909000000     1.629000000
H     7.246000000    -2.604000000     2.810000000
O     3.175000000     8.061000000     0.288000000
H     3.869000000     7.402000000     0.265000000
H     2.978000000     8.169000000     1.218000000
O     5.457000000     6.367000000     0.731000000
H     5.110000000     5.483000000     0.610000000
H     5.412000000     6.515000000     1.676000000
O     4.013000000     0.442000000     5.217000000
H     3.523000000     1.174000000     4.843000000
H     4.755000000     0.323000000     4.624000000
O     6.764000000     3.679000000     2.204000000
H     7.320000000     3.745000000     1.428000000
H     5.935000000     3.332000000     1.876000000
O     9.210000000     7.141000000     0.718000000
H     8.548000000     7.831000000     0.671000000
H     8.796000000     6.383000000     0.303000000
O     4.287000000     3.339000000     3.986000000
H     4.322000000     3.307000000     3.030000000
H     3.354000000     3.409000000     4.189000000
O     6.194000000     0.654000000     3.694000000
H     6.650000000    -0.129000000     3.384000000
H     6.072000000     1.187000000     2.908000000
O     8.870000000     2.421000000    -2.907000000
H     9.122000000     1.509000000    -2.766000000
H     8.564000000     2.720000000    -2.051000000
O     4.684000000     6.803000000     3.675000000
H     5.105000000     6.019000000     4.028000000
H     3.766000000     6.555000000     3.569000000
O     8.626000000     4.810000000    -0.603000000
H     9.430000000     4.434000000    -0.246000000
H     7.937000000     4.202000000    -0.334000000
O     2.602000000     5.373000000     2.617000000
H     1.993000000     4.815000000     3.102000000
H     2.978000000     4.796000000     1.953000000
O     7.069000000     3.316000000     4.892000000
H     7.166000000     3.533000000     3.965000000
H     6.126000000     3.205000000     5.014000000
O     8.632000000     0.774000000     5.211000000
H     7.950000000     0.770000000     4.540000000
H     8.929000000     1.683000000     5.245000000
O     1.783000000     8.318000000     2.596000000
H     1.274000000     8.820000000     3.233000000
H     1.337000000     7.472000000     2.547000000
