201
-1253.35146
C     0.371000000    -3.429000000     4.344000000
H     0.400000000    -4.389000000     3.835000000
C    -0.728000000    -2.564000000     4.149000000
C    -0.792000000    -1.427000000     4.897000000
H    -1.604000000    -0.738000000     4.678000000
C    -1.782000000    -2.783000000     3.058000000
O    -1.699000000    -4.174000000     2.671000000
H    -1.466000000    -2.139000000     2.224000000
O    -3.110000000    -2.399000000     3.409000000
C    -3.804000000    -1.782000000     2.378000000
C    -3.749000000    -0.368000000     2.421000000
H    -3.301000000     0.137000000     3.273000000
C    -4.427000000     0.385000000     1.424000000
O    -4.405000000     1.742000000     1.506000000
C    -4.845000000    -0.290000000     0.230000000
C    -5.535000000     0.436000000    -0.975000000
H    -6.123000000    -0.179000000    -1.659000000
C    -4.427000000     1.032000000    -1.864000000
C    -4.032000000     0.299000000    -3.033000000
H    -4.446000000    -0.670000000    -3.298000000
H    -6.152000000     1.234000000    -0.556000000
C    -4.854000000    -1.705000000     0.272000000
H    -5.262000000    -2.211000000    -0.600000000
C    -4.317000000    -2.483000000     1.268000000
C    -4.114000000    -3.901000000     1.104000000
H    -4.914000000    -4.260000000     0.453000000
H    -4.262000000    -4.362000000     2.083000000
C    -2.692000000    -4.127000000     0.538000000
C    -2.546000000    -4.143000000    -0.867000000
H    -3.416000000    -4.052000000    -1.511000000
C    -1.604000000    -4.322000000     1.360000000
C    -0.305000000    -4.421000000     0.798000000
H     0.590000000    -4.501000000     1.410000000
C    -0.124000000    -4.471000000    -0.583000000
O     1.175000000    -4.453000000    -0.985000000
C     1.685000000    -3.300000000    -1.531000000
C     3.130000000    -3.116000000    -1.103000000
C     3.976000000    -2.609000000    -2.043000000
H     3.748000000    -2.456000000    -3.094000000
C     3.584000000    -3.395000000     0.148000000
H     2.902000000    -3.831000000     0.873000000
O     1.619000000    -3.300000000    -2.993000000
H     1.146000000    -2.419000000    -1.152000000
C    -1.254000000    -4.338000000    -1.401000000
C    -1.083000000    -4.418000000    -2.937000000
H    -1.968000000    -4.759000000    -3.480000000
H    -0.248000000    -5.069000000    -3.202000000
C    -0.784000000    -3.013000000    -3.467000000
C    -1.808000000    -2.188000000    -4.039000000
H    -2.817000000    -2.570000000    -4.170000000
C     0.575000000    -2.570000000    -3.553000000
C     0.899000000    -1.331000000    -4.053000000
H     1.938000000    -1.018000000    -4.121000000
C    -0.154000000    -0.523000000    -4.518000000
O     0.168000000     0.767000000    -4.932000000
C    -0.188000000     1.832000000    -4.017000000
C     1.066000000     2.722000000    -3.921000000
C     2.383000000     2.292000000    -3.855000000
H     2.645000000     1.248000000    -4.003000000
C     0.835000000     4.052000000    -3.782000000
H    -0.153000000     4.494000000    -3.884000000
O    -1.429000000     2.546000000    -4.381000000
H    -0.352000000     1.375000000    -3.030000000
C    -1.482000000    -0.931000000    -4.510000000
C    -2.594000000    -0.064000000    -5.075000000
H    -3.325000000    -0.769000000    -5.476000000
H    -2.253000000     0.548000000    -5.913000000
C    -3.021000000     0.803000000    -3.913000000
C    -2.535000000     2.106000000    -3.659000000
C    -2.819000000     2.715000000    -2.465000000
H    -2.288000000     3.629000000    -2.214000000
C    -3.763000000     2.234000000    -1.603000000
O    -4.069000000     2.922000000    -0.353000000
C    -3.378000000     2.389000000     0.784000000
H    -2.643000000     1.626000000     0.489000000
C    -2.706000000     3.424000000     1.629000000
C    -2.676000000     3.373000000     3.006000000
H    -3.443000000     2.766000000     3.480000000
C    -1.837000000     4.315000000     1.010000000
H    -2.001000000     4.541000000    -0.040000000
C    -1.088000000     5.258000000     1.717000000
O    -0.220000000     6.144000000     1.114000000
C    -1.052000000     5.154000000     3.149000000
H    -0.409000000     5.854000000     3.676000000
C    -1.880000000     4.181000000     3.757000000
O    -2.011000000     4.249000000     5.085000000
C    -2.036000000     3.061000000     5.773000000
C    -0.930000000     2.230000000     5.744000000
H    -0.092000000     2.411000000     5.077000000
C    -3.212000000     2.715000000     6.514000000
H    -4.143000000     3.270000000     6.426000000
C    -3.065000000     1.661000000     7.404000000
H    -3.963000000     1.295000000     7.895000000
C    -1.914000000     0.822000000     7.487000000
H    -1.822000000    -0.033000000     8.152000000
C    -0.959000000     1.008000000     6.465000000
O     0.124000000     0.106000000     6.461000000
C     0.187000000    -1.116000000     5.792000000
C     1.281000000    -1.888000000     6.018000000
H     1.972000000    -1.594000000     6.804000000
C     1.353000000    -3.054000000     5.307000000
O     2.457000000    -3.917000000     5.539000000
C     3.272000000    -4.408000000     4.489000000
C     4.000000000    -3.572000000     3.644000000
H     3.949000000    -2.488000000     3.720000000
C     3.371000000    -5.826000000     4.444000000
H     2.809000000    -6.482000000     5.104000000
C     4.134000000    -6.387000000     3.408000000
H     4.236000000    -7.458000000     3.248000000
C     4.822000000    -5.526000000     2.503000000
H     5.239000000    -6.090000000     1.672000000
C     4.774000000    -4.140000000     2.582000000
O     5.394000000    -3.321000000     1.686000000
C     4.876000000    -3.002000000     0.535000000
C     5.726000000    -2.410000000    -0.401000000
H     6.667000000    -1.958000000    -0.097000000
C     5.258000000    -2.292000000    -1.663000000
O     6.123000000    -1.654000000    -2.505000000
C     5.919000000    -0.737000000    -3.463000000
C     5.252000000     0.383000000    -3.178000000
H     4.727000000     0.464000000    -2.229000000
C     6.659000000    -0.840000000    -4.622000000
H     7.330000000    -1.684000000    -4.757000000
C     6.625000000     0.174000000    -5.552000000
H     7.279000000     0.121000000    -6.418000000
C     5.911000000     1.299000000    -5.289000000
H     5.963000000     2.183000000    -5.920000000
C     5.284000000     1.428000000    -4.087000000
O     4.799000000     2.677000000    -3.733000000
C     3.469000000     3.136000000    -3.701000000
C     3.215000000     4.526000000    -3.457000000
H     4.056000000     5.190000000    -3.277000000
C     1.864000000     4.991000000    -3.501000000
O     1.605000000     6.306000000    -3.280000000
C     0.600000000     6.700000000    -2.373000000
C    -0.191000000     7.793000000    -2.639000000
H    -0.227000000     8.230000000    -3.634000000
C    -1.057000000     8.382000000    -1.709000000
H    -1.648000000     9.278000000    -1.886000000
C    -1.115000000     7.769000000    -0.449000000
H    -1.779000000     8.220000000     0.284000000
C    -0.308000000     6.630000000    -0.184000000
C     0.545000000     6.140000000    -1.119000000
H     1.055000000     5.205000000    -0.902000000
O     8.189000000     2.066000000     1.120000000
H     8.309000000     1.268000000     0.605000000
H     7.248000000     2.100000000     1.293000000
O     9.233000000    -0.305000000    -0.413000000
H     9.631000000    -0.604000000     0.405000000
H     9.075000000    -1.108000000    -0.910000000
O     8.933000000    -1.442000000     3.294000000
H     9.029000000    -1.426000000     4.246000000
H     8.042000000    -1.127000000     3.138000000
O     4.286000000     7.504000000    -0.221000000
H     3.838000000     6.860000000     0.327000000
H     5.217000000     7.326000000    -0.088000000
O     2.348000000     2.725000000     6.354000000
H     3.101000000     2.720000000     5.762000000
H     2.077000000     1.808000000     6.404000000
O     6.316000000     3.341000000    -1.252000000
H     5.847000000     3.180000000    -0.433000000
H     5.657000000     3.214000000    -1.934000000
O     5.541000000    -0.232000000     5.269000000
H     5.053000000     0.590000000     5.207000000
H     5.968000000    -0.321000000     4.417000000
O     9.687000000     3.542000000    -0.949000000
H     9.193000000     3.080000000    -1.626000000
H     9.383000000     3.159000000    -0.126000000
O     7.118000000     6.249000000     1.555000000
H     7.630000000     6.989000000     1.882000000
H     7.338000000     6.198000000     0.625000000
O     5.138000000     6.850000000     3.951000000
H     4.319000000     6.827000000     3.455000000
H     5.624000000     6.084000000     3.646000000
O     4.254000000     2.225000000     4.496000000
H     4.707000000     2.040000000     3.674000000
H     4.541000000     3.106000000     4.735000000
O     6.359000000    -0.917000000     2.809000000
H     5.746000000    -1.556000000     2.448000000
H     5.955000000    -0.068000000     2.629000000
O     8.918000000     1.430000000     5.037000000
H     9.488000000     1.010000000     4.394000000
H     8.814000000     2.326000000     4.717000000
O    10.208000000     3.321000000     2.171000000
H     9.798000000     4.171000000     2.330000000
H     9.513000000     2.787000000     1.786000000
O     7.709000000     5.617000000    -0.902000000
H     8.466000000     5.441000000    -1.460000000
H     7.142000000     4.855000000    -1.020000000
O     2.956000000     4.999000000     1.623000000
H     2.051000000     4.687000000     1.610000000
H     3.470000000     4.254000000     1.308000000
O     8.263000000     4.200000000     4.437000000
H     8.000000000     4.068000000     5.347000000
H     7.446000000     4.390000000     3.976000000
O     5.856000000     4.398000000     2.978000000
H     5.327000000     3.953000000     2.315000000
H     6.471000000     4.932000000     2.474000000
O     2.571000000     7.458000000     2.674000000
H     2.510000000     6.594000000     2.267000000
H     2.225000000     7.331000000     3.558000000
