201
-1251.56289
C    -0.906000000    -4.840000000     3.005000000
H    -1.038000000    -5.487000000     2.141000000
C    -1.663000000    -3.600000000     3.061000000
C    -1.412000000    -2.756000000     4.092000000
H    -1.862000000    -1.769000000     4.025000000
C    -2.523000000    -3.152000000     1.889000000
O    -2.692000000    -4.196000000     0.942000000
H    -2.028000000    -2.255000000     1.490000000
O    -3.839000000    -2.602000000     2.346000000
C    -4.321000000    -1.454000000     1.695000000
C    -4.110000000    -0.226000000     2.311000000
H    -3.534000000    -0.211000000     3.233000000
C    -4.207000000     0.908000000     1.557000000
O    -3.741000000     2.095000000     2.155000000
C    -4.570000000     0.904000000     0.223000000
C    -4.761000000     2.203000000    -0.500000000
H    -5.619000000     2.106000000    -1.168000000
C    -3.548000000     2.722000000    -1.235000000
C    -3.456000000     2.392000000    -2.559000000
H    -4.254000000     1.863000000    -3.072000000
H    -5.103000000     2.915000000     0.254000000
C    -4.924000000    -0.313000000    -0.385000000
H    -5.417000000    -0.351000000    -1.353000000
C    -4.655000000    -1.485000000     0.346000000
C    -4.862000000    -2.752000000    -0.432000000
H    -5.590000000    -2.656000000    -1.240000000
H    -5.306000000    -3.520000000     0.204000000
C    -3.537000000    -3.132000000    -1.055000000
C    -3.377000000    -2.806000000    -2.396000000
H    -4.154000000    -2.300000000    -2.964000000
C    -2.519000000    -3.868000000    -0.380000000
C    -1.383000000    -4.176000000    -1.009000000
H    -0.646000000    -4.724000000    -0.428000000
C    -1.158000000    -3.799000000    -2.316000000
O     0.120000000    -4.035000000    -2.813000000
C     1.017000000    -2.868000000    -2.757000000
C     2.390000000    -3.275000000    -2.300000000
C     3.540000000    -2.602000000    -2.767000000
H     3.390000000    -1.835000000    -3.522000000
C     2.572000000    -4.082000000    -1.193000000
H     1.673000000    -4.407000000    -0.675000000
O     1.045000000    -2.215000000    -4.019000000
H     0.653000000    -2.149000000    -2.009000000
C    -2.160000000    -3.126000000    -3.040000000
C    -1.888000000    -2.650000000    -4.389000000
H    -2.814000000    -2.598000000    -4.966000000
H    -1.226000000    -3.418000000    -4.794000000
C    -1.190000000    -1.267000000    -4.426000000
C    -1.940000000    -0.077000000    -4.678000000
H    -3.010000000    -0.093000000    -4.869000000
C     0.200000000    -1.180000000    -4.230000000
C     0.876000000     0.003000000    -4.401000000
H     1.949000000     0.148000000    -4.310000000
C     0.134000000     1.181000000    -4.536000000
O     0.818000000     2.349000000    -4.495000000
C     0.781000000     3.123000000    -3.249000000
C     2.132000000     3.697000000    -2.886000000
C     3.322000000     3.130000000    -3.288000000
H     3.270000000     2.383000000    -4.076000000
C     2.168000000     4.735000000    -1.932000000
H     1.274000000     5.230000000    -1.560000000
O    -0.233000000     4.129000000    -3.225000000
H     0.461000000     2.383000000    -2.500000000
C    -1.273000000     1.163000000    -4.646000000
C    -2.135000000     2.419000000    -4.691000000
H    -3.022000000     2.254000000    -5.306000000
H    -1.765000000     3.338000000    -5.150000000
C    -2.377000000     2.964000000    -3.274000000
C    -1.450000000     3.782000000    -2.642000000
C    -1.523000000     3.956000000    -1.265000000
H    -0.726000000     4.481000000    -0.745000000
C    -2.617000000     3.490000000    -0.580000000
O    -2.803000000     3.760000000     0.786000000
C    -2.470000000     2.653000000     1.672000000
H    -1.920000000     1.908000000     1.079000000
C    -1.543000000     3.051000000     2.792000000
C    -1.739000000     2.521000000     4.081000000
H    -2.654000000     1.969000000     4.279000000
C    -0.619000000     4.065000000     2.632000000
H    -0.600000000     4.585000000     1.678000000
C     0.286000000     4.388000000     3.623000000
O     1.255000000     5.351000000     3.458000000
C     0.061000000     3.849000000     4.894000000
H     0.724000000     4.120000000     5.711000000
C    -0.917000000     2.916000000     5.107000000
O    -1.046000000     2.438000000     6.374000000
C    -1.469000000     1.180000000     6.693000000
C    -0.670000000     0.082000000     6.338000000
H     0.305000000     0.148000000     5.861000000
C    -2.679000000     1.071000000     7.281000000
H    -3.198000000     1.995000000     7.524000000
C    -3.309000000    -0.164000000     7.510000000
H    -4.364000000    -0.174000000     7.770000000
C    -2.504000000    -1.302000000     7.237000000
H    -2.983000000    -2.278000000     7.249000000
C    -1.266000000    -1.160000000     6.578000000
O    -0.429000000    -2.277000000     6.297000000
C    -0.683000000    -3.182000000     5.268000000
C     0.001000000    -4.350000000     5.164000000
H     0.688000000    -4.590000000     5.972000000
C    -0.041000000    -5.206000000     4.038000000
O     0.759000000    -6.295000000     3.923000000
C     1.494000000    -6.578000000     2.770000000
C     2.573000000    -5.754000000     2.364000000
H     2.889000000    -4.875000000     2.921000000
C     1.186000000    -7.640000000     1.922000000
H     0.243000000    -8.145000000     2.118000000
C     1.893000000    -7.963000000     0.770000000
H     1.605000000    -8.900000000     0.302000000
C     2.824000000    -7.048000000     0.317000000
H     3.353000000    -7.237000000    -0.614000000
C     3.117000000    -5.931000000     1.084000000
O     4.093000000    -5.036000000     0.559000000
C     3.822000000    -4.268000000    -0.579000000
C     4.874000000    -3.553000000    -1.084000000
H     5.839000000    -3.702000000    -0.606000000
C     4.774000000    -2.781000000    -2.181000000
O     5.857000000    -1.956000000    -2.511000000
C     5.690000000    -0.844000000    -3.316000000
C     5.852000000     0.476000000    -2.835000000
H     6.121000000     0.573000000    -1.786000000
C     5.410000000    -0.988000000    -4.633000000
H     5.272000000    -1.948000000    -5.123000000
C     5.346000000     0.066000000    -5.528000000
H     5.037000000     0.011000000    -6.568000000
C     5.543000000     1.321000000    -5.049000000
H     5.369000000     2.192000000    -5.675000000
C     5.750000000     1.599000000    -3.698000000
O     5.661000000     2.825000000    -3.057000000
C     4.509000000     3.506000000    -2.768000000
C     4.514000000     4.642000000    -1.956000000
H     5.500000000     5.022000000    -1.700000000
C     3.424000000     5.294000000    -1.553000000
O     3.564000000     6.250000000    -0.632000000
C     2.707000000     6.564000000     0.341000000
C     2.113000000     7.849000000     0.256000000
H     2.385000000     8.471000000    -0.593000000
C     1.220000000     8.316000000     1.257000000
H     0.783000000     9.311000000     1.239000000
C     0.835000000     7.375000000     2.210000000
H     0.228000000     7.627000000     3.076000000
C     1.459000000     6.112000000     2.341000000
C     2.414000000     5.702000000     1.425000000
H     2.958000000     4.775000000     1.589000000
O     6.441000000    -4.953000000     5.384000000
H     5.657000000    -5.218000000     4.904000000
H     6.532000000    -4.019000000     5.198000000
O     6.512000000    -6.830000000     1.910000000
H     6.458000000    -7.079000000     0.987000000
H     6.677000000    -5.887000000     1.894000000
O     3.005000000    -3.574000000     5.517000000
H     3.531000000    -2.977000000     4.985000000
H     3.118000000    -4.429000000     5.101000000
O     8.604000000    -0.152000000    -1.300000000
H     7.952000000     0.253000000    -0.728000000
H     8.709000000    -1.038000000    -0.953000000
O     2.015000000     1.507000000     3.630000000
H     2.213000000     1.663000000     2.707000000
H     1.063000000     1.587000000     3.688000000
O     8.983000000    -1.081000000     4.460000000
H     8.586000000    -0.227000000     4.288000000
H     9.668000000    -1.165000000     3.796000000
O     2.139000000    -1.897000000     7.521000000
H     2.715000000    -2.229000000     6.833000000
H     1.282000000    -1.821000000     7.100000000
O     7.296000000     0.034000000     1.278000000
H     7.503000000     0.391000000     2.142000000
H     6.688000000    -0.684000000     1.455000000
O     7.752000000     1.190000000     3.630000000
H     7.006000000     1.257000000     4.227000000
H     8.009000000     2.097000000     3.465000000
O     6.674000000    -2.511000000     4.742000000
H     6.035000000    -2.250000000     4.079000000
H     7.411000000    -1.914000000     4.612000000
O     5.405000000    -1.064000000     7.165000000
H     6.217000000    -1.421000000     6.804000000
H     4.838000000    -0.943000000     6.404000000
O     9.642000000    -2.619000000     0.000000000
H     8.821000000    -3.061000000     0.216000000
H    10.215000000    -3.318000000    -0.314000000
O     2.572000000     2.154000000     1.195000000
H     2.751000000     1.215000000     1.140000000
H     3.386000000     2.569000000     0.909000000
O     4.011000000    -6.179000000     5.009000000
H     4.170000000    -6.348000000     5.938000000
H     3.717000000    -7.021000000     4.660000000
O     3.994000000    -0.137000000     4.979000000
H     4.064000000    -0.870000000     4.367000000
H     3.199000000     0.324000000     4.712000000
O     5.438000000     1.994000000     0.482000000
H     5.798000000     1.138000000     0.713000000
H     6.203000000     2.565000000     0.417000000
O     8.279000000    -5.138000000    -1.034000000
H     7.882000000    -5.470000000    -0.228000000
H     9.173000000    -5.480000000    -1.019000000
O     5.664000000     2.246000000     5.253000000
H     5.127000000     2.921000000     4.836000000
H     5.065000000     1.511000000     5.382000000
O     7.341000000    -4.165000000     1.758000000
H     6.790000000    -3.385000000     1.830000000
H     8.079000000    -3.992000000     2.342000000
