201
-1235.23765
C    -0.499000000    -4.091000000     2.647000000
H    -0.305000000    -4.518000000     1.666000000
C    -1.770000000    -3.393000000     2.745000000
C    -2.087000000    -2.889000000     4.097000000
H    -3.065000000    -2.469000000     4.317000000
C    -2.546000000    -3.059000000     1.458000000
O    -2.601000000    -4.194000000     0.592000000
H    -2.057000000    -2.225000000     0.933000000
O    -3.844000000    -2.719000000     1.818000000
C    -4.267000000    -1.611000000     1.136000000
C    -4.057000000    -0.450000000     1.821000000
H    -3.703000000    -0.371000000     2.845000000
C    -4.314000000     0.737000000     1.157000000
O    -4.172000000     1.926000000     1.832000000
C    -4.748000000     0.740000000    -0.218000000
C    -4.987000000     2.017000000    -0.897000000
H    -5.736000000     1.781000000    -1.655000000
C    -3.717000000     2.608000000    -1.601000000
C    -3.379000000     2.314000000    -2.916000000
H    -4.083000000     1.687000000    -3.457000000
H    -5.371000000     2.757000000    -0.192000000
C    -4.953000000    -0.483000000    -0.884000000
H    -5.345000000    -0.510000000    -1.897000000
C    -4.724000000    -1.666000000    -0.159000000
C    -4.713000000    -2.955000000    -0.991000000
H    -5.467000000    -2.956000000    -1.781000000
H    -5.181000000    -3.720000000    -0.367000000
C    -3.377000000    -3.224000000    -1.549000000
C    -3.015000000    -2.788000000    -2.829000000
H    -3.700000000    -2.262000000    -3.489000000
C    -2.428000000    -3.913000000    -0.813000000
C    -1.166000000    -4.137000000    -1.340000000
H    -0.491000000    -4.728000000    -0.726000000
C    -0.760000000    -3.738000000    -2.619000000
O     0.619000000    -3.856000000    -2.947000000
C     1.429000000    -2.722000000    -2.912000000
C     2.814000000    -3.020000000    -2.337000000
C     3.966000000    -2.287000000    -2.569000000
H     3.832000000    -1.393000000    -3.173000000
C     2.935000000    -4.171000000    -1.495000000
H     2.051000000    -4.724000000    -1.190000000
O     1.428000000    -2.092000000    -4.166000000
H     1.034000000    -1.990000000    -2.192000000
C    -1.700000000    -2.973000000    -3.371000000
C    -1.416000000    -2.478000000    -4.779000000
H    -2.323000000    -2.422000000    -5.384000000
H    -0.823000000    -3.263000000    -5.253000000
C    -0.741000000    -1.174000000    -4.792000000
C    -1.502000000    -0.029000000    -5.020000000
H    -2.565000000    -0.085000000    -5.237000000
C     0.582000000    -1.090000000    -4.379000000
C     1.207000000     0.121000000    -4.299000000
H     2.282000000     0.120000000    -4.139000000
C     0.495000000     1.271000000    -4.445000000
O     1.092000000     2.414000000    -4.140000000
C     0.840000000     3.041000000    -2.853000000
C     2.120000000     3.537000000    -2.249000000
C     3.310000000     2.912000000    -2.598000000
H     3.280000000     2.018000000    -3.215000000
C     2.143000000     4.544000000    -1.328000000
H     1.226000000     5.031000000    -1.006000000
O    -0.158000000     4.040000000    -2.913000000
H     0.381000000     2.309000000    -2.171000000
C    -0.887000000     1.231000000    -4.813000000
C    -1.737000000     2.421000000    -4.884000000
H    -2.652000000     2.182000000    -5.429000000
H    -1.228000000     3.255000000    -5.371000000
C    -2.224000000     2.821000000    -3.442000000
C    -1.408000000     3.640000000    -2.573000000
C    -1.774000000     3.845000000    -1.252000000
H    -1.159000000     4.413000000    -0.560000000
C    -2.935000000     3.384000000    -0.803000000
O    -3.234000000     3.746000000     0.531000000
C    -2.962000000     2.682000000     1.533000000
H    -2.315000000     1.980000000     0.988000000
C    -2.268000000     3.178000000     2.797000000
C    -2.402000000     2.530000000     4.011000000
H    -3.280000000     1.893000000     4.071000000
C    -1.098000000     3.908000000     2.707000000
H    -0.874000000     4.365000000     1.746000000
C    -0.155000000     4.096000000     3.763000000
O     1.007000000     4.829000000     3.588000000
C    -0.461000000     3.513000000     4.946000000
H     0.120000000     3.691000000     5.848000000
C    -1.656000000     2.835000000     5.161000000
O    -1.971000000     2.406000000     6.436000000
C    -2.463000000     1.181000000     6.649000000
C    -1.689000000     0.046000000     6.325000000
H    -0.702000000     0.206000000     5.899000000
C    -3.724000000     1.046000000     7.214000000
H    -4.299000000     1.933000000     7.468000000
C    -4.276000000    -0.217000000     7.399000000
H    -5.264000000    -0.206000000     7.852000000
C    -3.487000000    -1.364000000     7.157000000
H    -3.783000000    -2.341000000     7.530000000
C    -2.195000000    -1.233000000     6.608000000
O    -1.456000000    -2.411000000     6.450000000
C    -1.171000000    -2.981000000     5.183000000
C     0.003000000    -3.605000000     4.993000000
H     0.692000000    -3.721000000     5.825000000
C     0.294000000    -4.246000000     3.763000000
O     1.334000000    -5.161000000     3.850000000
C     1.928000000    -5.819000000     2.785000000
C     2.608000000    -5.252000000     1.676000000
H     2.904000000    -4.207000000     1.639000000
C     1.704000000    -7.159000000     2.810000000
H     1.273000000    -7.572000000     3.718000000
C     2.328000000    -7.980000000     1.887000000
H     2.183000000    -9.044000000     2.052000000
C     3.193000000    -7.433000000     0.966000000
H     3.887000000    -8.059000000     0.413000000
C     3.338000000    -6.075000000     0.826000000
O     4.309000000    -5.614000000    -0.043000000
C     4.195000000    -4.468000000    -0.920000000
C     5.398000000    -3.730000000    -1.252000000
H     6.359000000    -3.872000000    -0.764000000
C     5.214000000    -2.543000000    -2.010000000
O     6.399000000    -1.827000000    -2.398000000
C     6.271000000    -0.670000000    -3.175000000
C     6.199000000     0.588000000    -2.557000000
H     6.373000000     0.681000000    -1.489000000
C     5.987000000    -0.708000000    -4.570000000
H     5.910000000    -1.667000000    -5.076000000
C     5.796000000     0.488000000    -5.293000000
H     5.662000000     0.489000000    -6.371000000
C     5.695000000     1.676000000    -4.609000000
H     5.482000000     2.550000000    -5.219000000
C     5.944000000     1.774000000    -3.269000000
O     5.833000000     2.987000000    -2.655000000
C     4.559000000     3.452000000    -2.183000000
C     4.567000000     4.571000000    -1.355000000
H     5.520000000     5.005000000    -1.061000000
C     3.376000000     5.137000000    -0.904000000
O     3.534000000     6.290000000    -0.209000000
C     2.582000000     6.554000000     0.786000000
C     1.902000000     7.744000000     0.784000000
H     2.307000000     8.514000000     0.133000000
C     0.865000000     7.886000000     1.729000000
H     0.240000000     8.776000000     1.714000000
C     0.554000000     6.915000000     2.653000000
H    -0.308000000     6.876000000     3.314000000
C     1.318000000     5.745000000     2.664000000
C     2.274000000     5.522000000     1.737000000
H     2.854000000     4.603000000     1.747000000
O     1.644000000    -2.491000000     9.023000000
H     2.089000000    -2.340000000     8.189000000
H     1.070000000    -3.238000000     8.857000000
O     2.845000000    -1.814000000     6.729000000
H     2.422000000    -1.391000000     5.982000000
H     3.522000000    -2.367000000     6.340000000
O     3.887000000    -4.171000000     8.165000000
H     4.027000000    -4.944000000     7.619000000
H     2.950000000    -3.988000000     8.086000000
O     2.858000000    -5.837000000     5.915000000
H     2.333000000    -5.608000000     5.148000000
H     2.427000000    -6.611000000     6.277000000
O     5.350000000     2.342000000     7.384000000
H     5.007000000     1.468000000     7.199000000
H     4.842000000     2.645000000     8.137000000
O     2.438000000     1.746000000     6.058000000
H     2.433000000     0.891000000     5.627000000
H     2.754000000     1.566000000     6.943000000
O     7.821000000    -2.115000000     3.913000000
H     8.656000000    -2.448000000     4.244000000
H     7.993000000    -1.195000000     3.712000000
O     3.012000000     0.576000000     8.392000000
H     3.374000000     0.370000000     9.254000000
H     2.694000000    -0.263000000     8.059000000
O     5.332000000     1.343000000     2.656000000
H     4.557000000     1.890000000     2.528000000
H     5.024000000     0.610000000     3.188000000
O     7.145000000     2.885000000     4.172000000
H     6.583000000     2.332000000     3.629000000
H     7.874000000     3.121000000     3.598000000
O     5.173000000    -2.987000000     4.427000000
H     4.850000000    -2.493000000     3.674000000
H     6.112000000    -2.802000000     4.450000000
O     8.043000000     0.779000000     2.060000000
H     7.097000000     0.925000000     2.076000000
H     8.253000000     0.681000000     1.131000000
O     5.851000000    -2.536000000     7.602000000
H     5.011000000    -2.960000000     7.779000000
H     5.626000000    -1.774000000     7.067000000
O     2.593000000     2.298000000     3.139000000
H     2.177000000     2.100000000     3.977000000
H     1.910000000     2.135000000     2.488000000
O     5.663000000    -5.796000000     4.670000000
H     5.038000000    -6.018000000     5.361000000
H     5.369000000    -4.944000000     4.346000000
O     5.626000000    -0.253000000     6.126000000
H     5.044000000    -0.401000000     5.380000000
H     6.504000000    -0.404000000     5.777000000
O     4.048000000     4.332000000     4.040000000
H     4.397000000     3.465000000     4.244000000
H     3.098000000     4.219000000     4.057000000
O     7.184000000    -4.435000000     1.931000000
H     6.558000000    -3.732000000     1.756000000
H     7.782000000    -4.067000000     2.581000000
O     5.110000000    -2.494000000     1.504000000
H     5.116000000    -1.668000000     1.988000000
H     4.258000000    -2.508000000     1.067000000
