201
-1280.22874
C    -0.423000000    -3.559000000     3.469000000
H    -0.048000000    -4.087000000     2.596000000
C    -1.708000000    -2.893000000     3.595000000
C    -2.030000000    -2.149000000     4.719000000
H    -3.033000000    -1.742000000     4.813000000
C    -2.617000000    -2.847000000     2.377000000
O    -2.750000000    -4.061000000     1.731000000
H    -2.090000000    -2.073000000     1.798000000
O    -3.892000000    -2.326000000     2.621000000
C    -4.304000000    -1.237000000     1.850000000
C    -3.987000000     0.047000000     2.182000000
H    -3.479000000     0.256000000     3.120000000
C    -4.255000000     1.087000000     1.351000000
O    -3.913000000     2.298000000     1.864000000
C    -4.849000000     0.887000000     0.112000000
C    -5.140000000     2.060000000    -0.833000000
H    -5.960000000     1.931000000    -1.543000000
C    -3.914000000     2.568000000    -1.576000000
C    -3.633000000     2.014000000    -2.867000000
H    -4.371000000     1.298000000    -3.220000000
H    -5.407000000     2.881000000    -0.164000000
C    -5.083000000    -0.403000000    -0.310000000
H    -5.405000000    -0.627000000    -1.324000000
C    -4.777000000    -1.494000000     0.548000000
C    -4.988000000    -2.935000000     0.039000000
H    -5.702000000    -2.898000000    -0.787000000
H    -5.443000000    -3.611000000     0.766000000
C    -3.668000000    -3.434000000    -0.458000000
C    -3.417000000    -3.281000000    -1.842000000
H    -4.235000000    -2.989000000    -2.496000000
C    -2.665000000    -4.035000000     0.339000000
C    -1.365000000    -4.241000000    -0.134000000
H    -0.516000000    -4.552000000     0.469000000
C    -1.149000000    -3.976000000    -1.498000000
O     0.214000000    -4.198000000    -1.857000000
C     1.080000000    -3.100000000    -2.353000000
C     2.512000000    -3.444000000    -1.864000000
C     3.585000000    -2.625000000    -2.308000000
H     3.432000000    -1.915000000    -3.116000000
C     2.759000000    -4.317000000    -0.793000000
H     1.974000000    -4.995000000    -0.466000000
O     0.974000000    -2.996000000    -3.791000000
H     0.864000000    -2.103000000    -1.940000000
C    -2.139000000    -3.592000000    -2.367000000
C    -1.895000000    -3.429000000    -3.870000000
H    -2.842000000    -3.504000000    -4.409000000
H    -1.291000000    -4.256000000    -4.250000000
C    -1.247000000    -2.140000000    -4.224000000
C    -2.066000000    -1.022000000    -4.450000000
H    -3.138000000    -1.115000000    -4.293000000
C     0.165000000    -1.973000000    -4.153000000
C     0.796000000    -0.746000000    -4.327000000
H     1.860000000    -0.539000000    -4.411000000
C    -0.023000000     0.325000000    -4.624000000
O     0.605000000     1.541000000    -4.742000000
C     0.666000000     2.364000000    -3.619000000
C     2.071000000     3.052000000    -3.411000000
C     3.247000000     2.404000000    -3.895000000
H     3.159000000     1.448000000    -4.406000000
C     2.264000000     4.261000000    -2.781000000
H     1.389000000     4.822000000    -2.462000000
O    -0.305000000     3.382000000    -3.604000000
H     0.637000000     1.732000000    -2.719000000
C    -1.411000000     0.234000000    -4.685000000
C    -2.274000000     1.513000000    -4.939000000
H    -3.178000000     1.201000000    -5.466000000
H    -1.740000000     2.192000000    -5.607000000
C    -2.479000000     2.259000000    -3.617000000
C    -1.527000000     3.095000000    -3.031000000
C    -1.782000000     3.719000000    -1.784000000
H    -1.079000000     4.479000000    -1.452000000
C    -2.901000000     3.409000000    -1.062000000
O    -3.020000000     3.781000000     0.242000000
C    -2.705000000     2.824000000     1.250000000
H    -2.146000000     2.043000000     0.714000000
C    -1.665000000     3.403000000     2.291000000
C    -1.806000000     3.059000000     3.613000000
H    -2.716000000     2.649000000     4.043000000
C    -0.410000000     4.074000000     1.854000000
H    -0.282000000     4.216000000     0.784000000
C     0.560000000     4.405000000     2.812000000
O     1.760000000     5.109000000     2.545000000
C     0.370000000     4.084000000     4.166000000
H     1.120000000     4.309000000     4.920000000
C    -0.798000000     3.410000000     4.539000000
O    -0.939000000     3.194000000     5.895000000
C    -1.773000000     2.207000000     6.367000000
C    -1.358000000     0.866000000     6.179000000
H    -0.519000000     0.522000000     5.579000000
C    -2.921000000     2.556000000     7.073000000
H    -2.989000000     3.614000000     7.310000000
C    -3.738000000     1.569000000     7.631000000
H    -4.637000000     1.816000000     8.189000000
C    -3.252000000     0.228000000     7.609000000
H    -3.807000000    -0.546000000     8.133000000
C    -2.054000000    -0.128000000     6.931000000
O    -1.585000000    -1.367000000     6.954000000
C    -1.172000000    -1.999000000     5.821000000
C     0.051000000    -2.681000000     5.773000000
H     0.645000000    -2.577000000     6.677000000
C     0.405000000    -3.432000000     4.636000000
O     1.687000000    -3.948000000     4.597000000
C     1.995000000    -4.988000000     3.696000000
C     2.928000000    -4.723000000     2.685000000
H     3.239000000    -3.693000000     2.525000000
C     1.391000000    -6.198000000     3.742000000
H     0.664000000    -6.542000000     4.474000000
C     1.668000000    -7.110000000     2.738000000
H     1.091000000    -8.030000000     2.771000000
C     2.730000000    -6.912000000     1.823000000
H     3.113000000    -7.676000000     1.152000000
C     3.407000000    -5.719000000     1.823000000
O     4.324000000    -5.359000000     0.786000000
C     3.997000000    -4.434000000    -0.197000000
C     5.057000000    -3.681000000    -0.758000000
H     6.004000000    -3.763000000    -0.231000000
C     4.878000000    -2.769000000    -1.765000000
O     5.898000000    -1.863000000    -2.085000000
C     5.908000000    -1.174000000    -3.271000000
C     5.801000000     0.258000000    -3.214000000
H     5.869000000     0.821000000    -2.287000000
C     5.891000000    -1.811000000    -4.476000000
H     6.058000000    -2.885000000    -4.498000000
C     5.792000000    -1.053000000    -5.681000000
H     5.901000000    -1.537000000    -6.647000000
C     5.662000000     0.273000000    -5.606000000
H     5.584000000     0.913000000    -6.481000000
C     5.637000000     0.971000000    -4.413000000
O     5.538000000     2.374000000    -4.351000000
C     4.459000000     3.006000000    -3.849000000
C     4.673000000     4.170000000    -3.155000000
H     5.661000000     4.603000000    -3.022000000
C     3.566000000     4.780000000    -2.535000000
O     3.851000000     5.885000000    -1.750000000
C     3.052000000     6.345000000    -0.747000000
C     2.279000000     7.479000000    -0.869000000
H     2.433000000     8.180000000    -1.685000000
C     1.503000000     7.861000000     0.212000000
H     0.952000000     8.796000000     0.153000000
C     1.291000000     7.113000000     1.367000000
H     0.823000000     7.527000000     2.257000000
C     1.983000000     5.891000000     1.409000000
C     2.894000000     5.482000000     0.354000000
H     3.496000000     4.577000000     0.375000000
O     8.030000000    -4.849000000     3.533000000
H     7.999000000    -4.413000000     2.682000000
H     7.878000000    -4.148000000     4.167000000
O     4.456000000    -2.394000000     6.134000000
H     4.740000000    -2.132000000     5.259000000
H     3.609000000    -2.819000000     5.994000000
O     2.686000000     2.903000000     6.469000000
H     3.334000000     3.603000000     6.552000000
H     3.083000000     2.155000000     6.916000000
O     9.079000000    -0.271000000     0.052000000
H     8.563000000    -1.060000000    -0.115000000
H     9.550000000    -0.460000000     0.864000000
O     5.551000000     4.089000000     4.333000000
H     4.751000000     4.447000000     4.716000000
H     5.259000000     3.647000000     3.536000000
O     3.110000000     1.062000000     4.196000000
H     3.510000000     1.564000000     3.486000000
H     2.376000000     1.603000000     4.487000000
O     9.806000000    -0.188000000     4.742000000
H     9.529000000     0.716000000     4.594000000
H    10.351000000    -0.145000000     5.528000000
O    10.081000000    -1.777000000     2.373000000
H    10.681000000    -2.483000000     2.614000000
H    10.057000000    -1.210000000     3.143000000
O     3.898000000     0.281000000     6.596000000
H     3.558000000     0.470000000     5.722000000
H     4.373000000    -0.544000000     6.496000000
O     7.717000000     0.586000000     2.288000000
H     7.878000000     1.021000000     1.451000000
H     7.165000000    -0.164000000     2.066000000
O     7.760000000    -2.264000000     4.593000000
H     7.028000000    -1.877000000     4.112000000
H     8.301000000    -1.517000000     4.849000000
O     7.034000000    -2.295000000     7.214000000
H     7.407000000    -2.676000000     6.419000000
H     6.087000000    -2.361000000     7.090000000
O     9.720000000    -4.667000000     0.038000000
H     8.888000000    -4.368000000     0.403000000
H    10.171000000    -3.863000000    -0.220000000
O     7.069000000     0.133000000     8.721000000
H     6.645000000    -0.476000000     8.117000000
H     6.368000000     0.723000000     8.999000000
O     4.712000000     2.085000000     2.405000000
H     4.747000000     2.189000000     1.455000000
H     5.509000000     1.601000000     2.623000000
O     6.498000000     0.799000000     4.866000000
H     6.106000000     0.016000000     4.479000000
H     6.908000000     1.251000000     4.129000000
O     5.633000000     2.634000000    -0.021000000
H     5.477000000     2.302000000    -0.905000000
H     6.379000000     3.226000000    -0.116000000
O     6.342000000     3.025000000     6.736000000
H     6.427000000     3.474000000     5.895000000
H     6.463000000     2.099000000     6.526000000
O     7.800000000    -2.983000000     1.400000000
H     7.040000000    -2.433000000     1.592000000
H     8.474000000    -2.681000000     2.010000000
