201
-1252.00827
C     0.050000000    -4.001000000     3.651000000
H    -0.141000000    -4.891000000     3.056000000
C    -0.819000000    -2.894000000     3.687000000
C    -0.504000000    -1.833000000     4.526000000
H    -1.146000000    -0.960000000     4.613000000
C    -1.872000000    -2.735000000     2.570000000
O    -2.076000000    -4.007000000     1.949000000
H    -1.505000000    -1.920000000     1.928000000
O    -3.103000000    -2.328000000     3.161000000
C    -3.779000000    -1.280000000     2.499000000
C    -3.682000000    -0.007000000     2.932000000
H    -2.955000000     0.217000000     3.707000000
C    -4.312000000     0.973000000     2.207000000
O    -3.951000000     2.298000000     2.492000000
C    -4.988000000     0.694000000     1.016000000
C    -5.401000000     1.800000000     0.078000000
H    -6.270000000     1.569000000    -0.543000000
C    -4.188000000     2.245000000    -0.821000000
C    -4.044000000     1.805000000    -2.103000000
H    -4.743000000     1.061000000    -2.475000000
H    -5.696000000     2.689000000     0.639000000
C    -5.135000000    -0.611000000     0.616000000
H    -5.608000000    -0.763000000    -0.351000000
C    -4.502000000    -1.629000000     1.341000000
C    -4.688000000    -3.044000000     0.751000000
H    -5.598000000    -3.151000000     0.156000000
H    -4.732000000    -3.683000000     1.635000000
C    -3.435000000    -3.562000000    -0.027000000
C    -3.450000000    -3.486000000    -1.424000000
H    -4.330000000    -3.129000000    -1.953000000
C    -2.254000000    -3.890000000     0.611000000
C    -1.133000000    -4.239000000    -0.097000000
H    -0.247000000    -4.513000000     0.470000000
C    -1.127000000    -4.079000000    -1.486000000
O     0.118000000    -4.238000000    -2.070000000
C     0.787000000    -3.083000000    -2.716000000
C     2.263000000    -3.407000000    -2.471000000
C     3.209000000    -2.756000000    -3.331000000
H     2.775000000    -2.113000000    -4.093000000
C     2.765000000    -3.972000000    -1.268000000
H     2.108000000    -4.303000000    -0.467000000
O     0.450000000    -2.992000000    -4.143000000
H     0.547000000    -2.170000000    -2.152000000
C    -2.274000000    -3.608000000    -2.158000000
C    -2.306000000    -3.365000000    -3.673000000
H    -3.330000000    -3.462000000    -4.040000000
H    -1.708000000    -4.206000000    -4.030000000
C    -1.698000000    -2.055000000    -4.096000000
C    -2.476000000    -0.908000000    -4.101000000
H    -3.504000000    -1.002000000    -3.759000000
C    -0.336000000    -1.927000000    -4.345000000
C     0.266000000    -0.725000000    -4.622000000
H     1.298000000    -0.649000000    -4.953000000
C    -0.556000000     0.444000000    -4.694000000
O     0.120000000     1.625000000    -4.648000000
C     0.210000000     2.316000000    -3.398000000
C     1.567000000     2.910000000    -3.120000000
C     2.697000000     2.461000000    -3.852000000
H     2.641000000     1.750000000    -4.672000000
C     1.761000000     4.054000000    -2.330000000
H     0.908000000     4.478000000    -1.806000000
O    -0.839000000     3.312000000    -3.150000000
H     0.059000000     1.591000000    -2.585000000
C    -1.949000000     0.366000000    -4.380000000
C    -2.845000000     1.579000000    -4.287000000
H    -3.820000000     1.320000000    -4.703000000
H    -2.423000000     2.278000000    -5.012000000
C    -2.953000000     2.121000000    -2.899000000
C    -1.932000000     2.986000000    -2.449000000
C    -2.066000000     3.429000000    -1.105000000
H    -1.417000000     4.215000000    -0.729000000
C    -3.228000000     3.133000000    -0.362000000
O    -3.334000000     3.755000000     0.881000000
C    -2.776000000     2.871000000     1.895000000
H    -2.091000000     2.151000000     1.423000000
C    -1.942000000     3.698000000     2.853000000
C    -2.032000000     3.496000000     4.254000000
H    -2.833000000     2.970000000     4.766000000
C    -0.878000000     4.542000000     2.318000000
H    -0.868000000     4.696000000     1.242000000
C     0.100000000     5.075000000     3.232000000
O     1.158000000     5.913000000     2.813000000
C     0.023000000     4.718000000     4.590000000
H     0.697000000     5.104000000     5.349000000
C    -1.034000000     3.915000000     5.075000000
O    -1.065000000     3.612000000     6.407000000
C    -1.057000000     2.297000000     6.900000000
C    -0.056000000     1.382000000     6.551000000
H     0.804000000     1.724000000     5.980000000
C    -2.239000000     1.847000000     7.533000000
H    -3.039000000     2.571000000     7.664000000
C    -2.328000000     0.431000000     7.746000000
H    -3.234000000     0.049000000     8.210000000
C    -1.275000000    -0.431000000     7.393000000
H    -1.281000000    -1.496000000     7.610000000
C    -0.159000000    -0.001000000     6.781000000
O     0.800000000    -0.861000000     6.265000000
C     0.618000000    -1.900000000     5.378000000
C     1.462000000    -3.008000000     5.350000000
H     2.318000000    -3.082000000     6.014000000
C     1.222000000    -4.017000000     4.422000000
O     2.102000000    -5.054000000     4.243000000
C     2.430000000    -5.540000000     2.921000000
C     3.458000000    -4.962000000     2.130000000
H     4.026000000    -4.107000000     2.489000000
C     1.828000000    -6.728000000     2.479000000
H     1.174000000    -7.305000000     3.128000000
C     2.252000000    -7.336000000     1.259000000
H     1.860000000    -8.283000000     0.896000000
C     3.105000000    -6.661000000     0.437000000
H     3.430000000    -7.029000000    -0.533000000
C     3.814000000    -5.530000000     0.883000000
O     4.616000000    -4.794000000     0.098000000
C     4.145000000    -4.119000000    -1.065000000
C     5.013000000    -3.517000000    -1.959000000
H     6.067000000    -3.553000000    -1.693000000
C     4.577000000    -2.762000000    -3.040000000
O     5.495000000    -2.130000000    -3.837000000
C     5.410000000    -0.995000000    -4.614000000
C     5.250000000     0.258000000    -4.064000000
H     5.147000000     0.307000000    -2.983000000
C     5.794000000    -1.157000000    -5.923000000
H     6.069000000    -2.150000000    -6.272000000
C     5.844000000    -0.087000000    -6.760000000
H     6.208000000    -0.261000000    -7.770000000
C     5.592000000     1.203000000    -6.246000000
H     5.637000000     2.124000000    -6.821000000
C     5.344000000     1.349000000    -4.874000000
O     5.078000000     2.580000000    -4.398000000
C     3.988000000     2.982000000    -3.636000000
C     4.115000000     4.018000000    -2.702000000
H     5.044000000     4.558000000    -2.542000000
C     3.042000000     4.608000000    -2.154000000
O     3.273000000     5.690000000    -1.381000000
C     2.304000000     6.244000000    -0.586000000
C     1.308000000     7.066000000    -1.130000000
H     1.323000000     7.299000000    -2.192000000
C     0.226000000     7.530000000    -0.337000000
H    -0.560000000     8.133000000    -0.787000000
C     0.176000000     7.152000000     1.010000000
H    -0.649000000     7.296000000     1.704000000
C     1.191000000     6.299000000     1.522000000
C     2.248000000     5.911000000     0.738000000
H     2.976000000     5.225000000     1.164000000
O     7.351000000    -4.959000000     0.600000000
H     6.405000000    -4.819000000     0.655000000
H     7.710000000    -4.094000000     0.403000000
O    10.610000000     0.083000000     1.421000000
H    10.496000000    -0.017000000     0.476000000
H    11.032000000     0.935000000     1.522000000
O     8.513000000    -2.586000000     0.095000000
H     8.627000000    -2.837000000     1.012000000
H     7.702000000    -2.077000000     0.085000000
O     6.844000000     2.577000000    -1.597000000
H     6.424000000     2.724000000    -2.444000000
H     7.264000000     3.412000000    -1.389000000
O     7.689000000     0.170000000     2.097000000
H     7.123000000    -0.503000000     1.718000000
H     8.537000000     0.034000000     1.676000000
O     3.962000000     1.072000000     5.584000000
H     4.739000000     1.214000000     5.044000000
H     3.297000000     1.645000000     5.202000000
O     7.775000000    -0.114000000    -1.994000000
H     7.603000000     0.768000000    -1.665000000
H     7.253000000    -0.686000000    -1.432000000
O     8.059000000     0.958000000     5.423000000
H     8.592000000     0.207000000     5.162000000
H     8.690000000     1.594000000     5.760000000
O     6.488000000    -6.226000000     4.812000000
H     6.615000000    -5.297000000     4.618000000
H     6.066000000    -6.236000000     5.672000000
O     9.046000000    -3.449000000     3.016000000
H     8.318000000    -3.754000000     3.559000000
H     9.816000000    -3.532000000     3.580000000
O     6.464000000    -3.605000000     4.220000000
H     6.173000000    -3.367000000     3.340000000
H     6.910000000    -2.823000000     4.544000000
O    10.532000000    -3.466000000    -1.991000000
H     9.974000000    -2.884000000    -1.476000000
H     9.981000000    -3.739000000    -2.725000000
O     8.192000000    -6.457000000    -1.499000000
H     7.910000000    -5.811000000    -0.851000000
H     7.792000000    -6.163000000    -2.318000000
O    10.055000000    -0.734000000     4.470000000
H    10.468000000    -0.500000000     3.638000000
H     9.504000000    -1.488000000     4.260000000
O     7.752000000    -1.880000000     5.651000000
H     7.507000000    -1.022000000     5.997000000
H     8.388000000    -2.220000000     6.281000000
O     5.482000000     4.551000000     1.132000000
H     5.396000000     3.631000000     0.881000000
H     6.426000000     4.710000000     1.139000000
O     6.016000000     1.392000000     3.691000000
H     6.560000000     1.059000000     4.404000000
H     6.482000000     1.138000000     2.894000000
O     5.491000000     1.822000000     0.815000000
H     5.011000000     1.010000000     0.976000000
H     5.934000000     1.678000000    -0.021000000
O     8.167000000    -3.929000000    -3.682000000
H     7.669000000    -3.213000000    -3.286000000
H     8.228000000    -3.694000000    -4.608000000
