201
-1231.76584
C    -0.593000000    -3.853000000     3.179000000
H    -0.592000000    -4.360000000     2.217000000
C    -1.555000000    -2.911000000     3.416000000
C    -1.455000000    -2.228000000     4.648000000
H    -2.166000000    -1.486000000     5.000000000
C    -2.482000000    -2.499000000     2.344000000
O    -3.044000000    -3.529000000     1.543000000
H    -1.984000000    -1.844000000     1.614000000
O    -3.611000000    -1.836000000     2.940000000
C    -3.940000000    -0.686000000     2.375000000
C    -3.467000000     0.500000000     2.940000000
H    -2.840000000     0.529000000     3.827000000
C    -3.645000000     1.713000000     2.264000000
O    -2.945000000     2.813000000     2.732000000
C    -4.399000000     1.778000000     1.087000000
C    -4.463000000     3.070000000     0.262000000
H    -5.367000000     2.839000000    -0.306000000
C    -3.273000000     3.312000000    -0.641000000
C    -3.380000000     2.957000000    -1.995000000
H    -4.226000000     2.362000000    -2.328000000
H    -4.652000000     3.846000000     1.006000000
C    -4.947000000     0.602000000     0.605000000
H    -5.417000000     0.640000000    -0.375000000
C    -4.755000000    -0.624000000     1.273000000
C    -5.269000000    -1.894000000     0.595000000
H    -6.169000000    -1.638000000     0.033000000
H    -5.407000000    -2.629000000     1.391000000
C    -4.238000000    -2.487000000    -0.335000000
C    -4.190000000    -2.150000000    -1.674000000
H    -4.857000000    -1.408000000    -2.106000000
C    -3.204000000    -3.289000000     0.172000000
C    -2.230000000    -3.815000000    -0.640000000
H    -1.506000000    -4.563000000    -0.326000000
C    -2.214000000    -3.445000000    -1.995000000
O    -1.172000000    -3.864000000    -2.746000000
C    -0.084000000    -2.971000000    -2.855000000
C     1.197000000    -3.789000000    -2.611000000
C     2.465000000    -3.173000000    -3.013000000
H     2.362000000    -2.257000000    -3.590000000
C     1.197000000    -4.982000000    -1.883000000
H     0.278000000    -5.487000000    -1.593000000
O    -0.069000000    -2.498000000    -4.277000000
H    -0.260000000    -2.170000000    -2.122000000
C    -3.172000000    -2.616000000    -2.502000000
C    -3.135000000    -2.315000000    -4.015000000
H    -4.132000000    -2.012000000    -4.340000000
H    -2.931000000    -3.214000000    -4.600000000
C    -2.182000000    -1.162000000    -4.376000000
C    -2.705000000     0.119000000    -4.317000000
H    -3.776000000     0.266000000    -4.210000000
C    -0.785000000    -1.359000000    -4.486000000
C     0.049000000    -0.255000000    -4.607000000
H     1.126000000    -0.325000000    -4.733000000
C    -0.440000000     1.011000000    -4.530000000
O     0.513000000     2.003000000    -4.518000000
C     0.792000000     2.828000000    -3.289000000
C     2.255000000     3.042000000    -3.233000000
C     3.142000000     2.109000000    -3.762000000
H     2.690000000     1.225000000    -4.204000000
C     2.772000000     4.192000000    -2.633000000
H     2.055000000     4.969000000    -2.382000000
O    -0.011000000     3.980000000    -3.268000000
H     0.605000000     2.227000000    -2.387000000
C    -1.846000000     1.237000000    -4.389000000
C    -2.397000000     2.662000000    -4.298000000
H    -3.398000000     2.738000000    -4.727000000
H    -1.814000000     3.366000000    -4.895000000
C    -2.325000000     3.213000000    -2.885000000
C    -1.190000000     3.922000000    -2.479000000
C    -1.126000000     4.342000000    -1.153000000
H    -0.165000000     4.727000000    -0.823000000
C    -2.176000000     4.074000000    -0.209000000
O    -2.008000000     4.359000000     1.122000000
C    -1.699000000     3.277000000     2.055000000
H    -1.353000000     2.442000000     1.428000000
C    -0.548000000     3.604000000     2.942000000
C    -0.572000000     3.215000000     4.249000000
H    -1.469000000     2.972000000     4.812000000
C     0.612000000     4.091000000     2.346000000
H     0.692000000     4.308000000     1.283000000
C     1.815000000     4.207000000     3.063000000
O     3.033000000     4.510000000     2.373000000
C     1.736000000     3.922000000     4.411000000
H     2.531000000     4.072000000     5.137000000
C     0.586000000     3.325000000     4.994000000
O     0.661000000     2.815000000     6.243000000
C    -0.231000000     1.816000000     6.708000000
C    -0.028000000     0.465000000     6.306000000
H     0.685000000     0.297000000     5.503000000
C    -1.276000000     2.087000000     7.574000000
H    -1.546000000     3.111000000     7.819000000
C    -1.782000000     1.088000000     8.323000000
H    -2.585000000     1.344000000     9.009000000
C    -1.423000000    -0.239000000     8.076000000
H    -1.730000000    -1.078000000     8.695000000
C    -0.586000000    -0.538000000     6.997000000
O    -0.359000000    -1.903000000     6.766000000
C    -0.397000000    -2.503000000     5.494000000
C     0.552000000    -3.448000000     5.126000000
H     1.410000000    -3.745000000     5.723000000
C     0.499000000    -4.120000000     3.968000000
O     1.413000000    -5.228000000     3.754000000
C     1.295000000    -6.123000000     2.794000000
C     2.037000000    -5.958000000     1.629000000
H     2.807000000    -5.193000000     1.570000000
C     0.277000000    -7.088000000     2.929000000
H    -0.269000000    -7.222000000     3.860000000
C    -0.040000000    -7.940000000     1.810000000
H    -0.683000000    -8.805000000     1.947000000
C     0.712000000    -7.768000000     0.618000000
H     0.502000000    -8.444000000    -0.206000000
C     1.711000000    -6.766000000     0.532000000
O     2.490000000    -6.599000000    -0.622000000
C     2.425000000    -5.505000000    -1.399000000
C     3.611000000    -4.834000000    -1.709000000
H     4.553000000    -5.150000000    -1.269000000
C     3.655000000    -3.751000000    -2.553000000
O     4.881000000    -3.126000000    -2.841000000
C     5.010000000    -2.181000000    -3.906000000
C     5.332000000    -0.876000000    -3.649000000
H     5.511000000    -0.572000000    -2.621000000
C     4.661000000    -2.589000000    -5.182000000
H     4.527000000    -3.647000000    -5.391000000
C     4.474000000    -1.657000000    -6.263000000
H     4.330000000    -1.987000000    -7.288000000
C     4.662000000    -0.322000000    -5.894000000
H     4.546000000     0.474000000    -6.625000000
C     5.091000000     0.128000000    -4.614000000
O     5.343000000     1.435000000    -4.386000000
C     4.497000000     2.289000000    -3.721000000
C     5.000000000     3.417000000    -3.110000000
H     6.079000000     3.550000000    -3.087000000
C     4.172000000     4.459000000    -2.690000000
O     4.577000000     5.634000000    -2.060000000
C     3.938000000     6.054000000    -0.874000000
C     3.338000000     7.358000000    -0.769000000
H     3.561000000     8.073000000    -1.557000000
C     2.651000000     7.662000000     0.389000000
H     2.340000000     8.695000000     0.525000000
C     2.611000000     6.788000000     1.480000000
H     2.206000000     7.110000000     2.436000000
C     3.087000000     5.500000000     1.354000000
C     3.810000000     5.177000000     0.157000000
H     4.306000000     4.211000000     0.104000000
O     5.246000000    -2.309000000     6.173000000
H     5.544000000    -2.848000000     5.440000000
H     5.007000000    -2.940000000     6.852000000
O     4.890000000     1.206000000     4.208000000
H     4.273000000     0.474000000     4.206000000
H     5.616000000     0.909000000     3.659000000
O     6.952000000    -6.047000000     0.714000000
H     7.805000000    -6.261000000     1.090000000
H     6.555000000    -5.447000000     1.346000000
O     7.168000000    -0.283000000     5.649000000
H     6.659000000    -0.864000000     6.214000000
H     6.685000000    -0.271000000     4.822000000
O     3.369000000     1.559000000     6.905000000
H     4.261000000     1.476000000     7.241000000
H     3.328000000     0.937000000     6.178000000
O     3.223000000    -0.894000000     4.784000000
H     2.883000000    -1.331000000     4.003000000
H     3.861000000    -1.510000000     5.144000000
O     6.704000000    -0.938000000     2.986000000
H     7.391000000    -1.095000000     2.338000000
H     5.887000000    -1.034000000     2.497000000
O     8.369000000    -4.751000000     3.392000000
H     7.489000000    -4.617000000     3.041000000
H     8.735000000    -5.457000000     2.859000000
O     2.944000000     1.906000000     0.733000000
H     2.372000000     1.211000000     0.407000000
H     2.392000000     2.406000000     1.335000000
O     9.586000000    -2.263000000    -0.319000000
H     8.629000000    -2.264000000    -0.317000000
H     9.826000000    -3.111000000    -0.693000000
O     4.055000000    -5.288000000     5.138000000
H     3.179000000    -5.401000000     4.769000000
H     3.906000000    -5.156000000     6.074000000
O     8.155000000    -0.125000000    -1.751000000
H     8.710000000    -0.459000000    -2.456000000
H     7.725000000    -0.903000000    -1.396000000
O     9.439000000     0.463000000     3.942000000
H     8.510000000     0.692000000     3.967000000
H     9.448000000    -0.488000000     3.833000000
O     4.678000000    -8.633000000     1.662000000
H     4.246000000    -9.037000000     0.909000000
H     4.652000000    -7.694000000     1.478000000
O     5.697000000    -4.504000000     2.537000000
H     5.175000000    -4.878000000     3.247000000
H     5.356000000    -3.616000000     2.432000000
O     7.718000000     2.200000000    -0.458000000
H     8.034000000     1.381000000    -0.839000000
H     6.832000000     1.998000000    -0.157000000
O     6.619000000    -2.353000000    -0.469000000
H     6.012000000    -2.306000000     0.269000000
H     6.076000000    -2.620000000    -1.210000000
O     5.660000000     1.053000000     0.929000000
H     4.882000000     1.576000000     0.736000000
H     5.353000000     0.146000000     0.899000000
O     6.118000000     3.276000000     5.511000000
H     5.941000000     3.936000000     4.841000000
H     5.622000000     2.508000000     5.228000000
