201
-1272.16211
C    -0.818000000    -4.042000000     3.099000000
H    -1.094000000    -4.860000000     2.438000000
C    -1.357000000    -2.772000000     3.247000000
C    -0.774000000    -1.863000000     4.129000000
H    -1.143000000    -0.855000000     4.301000000
C    -2.454000000    -2.324000000     2.278000000
O    -2.963000000    -3.423000000     1.516000000
H    -1.949000000    -1.675000000     1.547000000
O    -3.489000000    -1.558000000     2.928000000
C    -3.972000000    -0.435000000     2.274000000
C    -3.576000000     0.779000000     2.823000000
H    -3.072000000     0.739000000     3.785000000
C    -3.923000000     1.991000000     2.177000000
O    -3.264000000     3.154000000     2.617000000
C    -4.628000000     1.866000000     0.967000000
C    -4.829000000     3.007000000    -0.026000000
H    -5.673000000     2.798000000    -0.686000000
C    -3.686000000     3.215000000    -0.940000000
C    -3.604000000     2.634000000    -2.192000000
H    -4.363000000     1.919000000    -2.500000000
H    -5.084000000     3.910000000     0.533000000
C    -4.972000000     0.583000000     0.437000000
H    -5.327000000     0.487000000    -0.586000000
C    -4.678000000    -0.538000000     1.094000000
C    -5.071000000    -1.890000000     0.504000000
H    -5.993000000    -1.639000000    -0.025000000
H    -5.265000000    -2.644000000     1.271000000
C    -3.909000000    -2.420000000    -0.388000000
C    -3.857000000    -2.200000000    -1.795000000
H    -4.642000000    -1.594000000    -2.241000000
C    -2.984000000    -3.294000000     0.183000000
C    -2.035000000    -3.970000000    -0.602000000
H    -1.289000000    -4.601000000    -0.125000000
C    -2.022000000    -3.694000000    -1.979000000
O    -0.984000000    -4.289000000    -2.719000000
C     0.101000000    -3.348000000    -2.941000000
C     1.427000000    -4.083000000    -2.687000000
C     2.622000000    -3.500000000    -3.007000000
H     2.724000000    -2.526000000    -3.480000000
C     1.400000000    -5.316000000    -2.041000000
H     0.471000000    -5.835000000    -1.818000000
O     0.126000000    -2.746000000    -4.286000000
H    -0.081000000    -2.468000000    -2.306000000
C    -2.962000000    -2.853000000    -2.531000000
C    -2.907000000    -2.594000000    -4.064000000
H    -3.922000000    -2.385000000    -4.408000000
H    -2.599000000    -3.497000000    -4.596000000
C    -1.910000000    -1.450000000    -4.296000000
C    -2.483000000    -0.171000000    -4.342000000
H    -3.548000000    -0.175000000    -4.128000000
C    -0.521000000    -1.567000000    -4.331000000
C     0.196000000    -0.403000000    -4.458000000
H     1.278000000    -0.500000000    -4.437000000
C    -0.329000000     0.851000000    -4.495000000
O     0.402000000     1.973000000    -4.513000000
C     0.564000000     2.658000000    -3.286000000
C     2.000000000     3.039000000    -3.030000000
C     2.971000000     1.992000000    -3.018000000
H     2.697000000     1.022000000    -3.425000000
C     2.388000000     4.289000000    -2.491000000
H     1.567000000     5.001000000    -2.484000000
O    -0.328000000     3.833000000    -3.259000000
H     0.265000000     1.941000000    -2.507000000
C    -1.726000000     0.978000000    -4.472000000
C    -2.430000000     2.279000000    -4.370000000
H    -3.436000000     2.032000000    -4.714000000
H    -2.011000000     2.969000000    -5.105000000
C    -2.497000000     2.850000000    -2.984000000
C    -1.426000000     3.642000000    -2.518000000
C    -1.391000000     4.160000000    -1.222000000
H    -0.551000000     4.678000000    -0.768000000
C    -2.526000000     3.930000000    -0.443000000
O    -2.512000000     4.460000000     0.800000000
C    -2.125000000     3.519000000     1.845000000
H    -1.837000000     2.597000000     1.318000000
C    -0.902000000     3.902000000     2.737000000
C    -0.973000000     3.482000000     4.090000000
H    -1.804000000     2.911000000     4.496000000
C     0.116000000     4.648000000     2.257000000
H     0.026000000     5.068000000     1.259000000
C     1.264000000     4.855000000     3.068000000
O     2.463000000     5.381000000     2.729000000
C     1.180000000     4.451000000     4.371000000
H     2.012000000     4.567000000     5.062000000
C     0.070000000     3.840000000     4.924000000
O     0.132000000     3.383000000     6.218000000
C    -0.105000000     2.091000000     6.615000000
C     0.431000000     0.957000000     5.967000000
H     1.011000000     1.100000000     5.058000000
C    -0.718000000     1.916000000     7.905000000
H    -1.020000000     2.826000000     8.418000000
C    -0.761000000     0.705000000     8.482000000
H    -0.882000000     0.555000000     9.551000000
C    -0.315000000    -0.445000000     7.719000000
H    -0.209000000    -1.411000000     8.206000000
C     0.217000000    -0.339000000     6.464000000
O     0.898000000    -1.400000000     5.858000000
C     0.375000000    -2.217000000     4.833000000
C     0.996000000    -3.441000000     4.564000000
H     1.937000000    -3.774000000     4.996000000
C     0.359000000    -4.386000000     3.729000000
O     0.873000000    -5.673000000     3.520000000
C     0.658000000    -6.412000000     2.371000000
C     1.723000000    -6.326000000     1.406000000
H     2.468000000    -5.552000000     1.572000000
C    -0.307000000    -7.359000000     2.271000000
H    -1.038000000    -7.491000000     3.063000000
C    -0.327000000    -8.200000000     1.153000000
H    -1.075000000    -8.973000000     0.997000000
C     0.619000000    -8.053000000     0.162000000
H     0.458000000    -8.592000000    -0.768000000
C     1.701000000    -7.149000000     0.302000000
O     2.589000000    -6.973000000    -0.723000000
C     2.611000000    -5.828000000    -1.489000000
C     3.808000000    -5.245000000    -1.902000000
H     4.706000000    -5.689000000    -1.481000000
C     3.839000000    -4.099000000    -2.708000000
O     5.088000000    -3.537000000    -3.018000000
C     5.162000000    -2.275000000    -3.603000000
C     5.307000000    -1.116000000    -2.834000000
H     5.479000000    -1.186000000    -1.763000000
C     4.929000000    -2.217000000    -5.001000000
H     4.786000000    -3.100000000    -5.619000000
C     4.685000000    -0.938000000    -5.582000000
H     4.224000000    -0.870000000    -6.564000000
C     4.794000000     0.234000000    -4.785000000
H     4.686000000     1.222000000    -5.226000000
C     5.128000000     0.133000000    -3.472000000
O     5.166000000     1.216000000    -2.623000000
C     4.305000000     2.246000000    -2.638000000
C     4.660000000     3.516000000    -2.219000000
H     5.701000000     3.635000000    -1.928000000
C     3.704000000     4.499000000    -2.196000000
O     4.026000000     5.764000000    -1.793000000
C     3.498000000     6.311000000    -0.620000000
C     3.386000000     7.670000000    -0.584000000
H     3.776000000     8.265000000    -1.406000000
C     2.883000000     8.315000000     0.577000000
H     2.902000000     9.402000000     0.610000000
C     2.537000000     7.485000000     1.700000000
H     2.304000000     7.945000000     2.657000000
C     2.712000000     6.117000000     1.588000000
C     3.210000000     5.505000000     0.471000000
H     3.396000000     4.436000000     0.537000000
O     6.956000000    -3.393000000     5.229000000
H     7.367000000    -2.975000000     4.472000000
H     7.687000000    -3.747000000     5.735000000
O     3.479000000     1.369000000     3.466000000
H     3.703000000     0.439000000     3.488000000
H     3.241000000     1.580000000     4.369000000
O     5.213000000    -6.882000000     0.700000000
H     6.028000000    -6.385000000     0.772000000
H     4.802000000    -6.793000000     1.560000000
O     6.570000000    -0.965000000     6.489000000
H     5.636000000    -0.900000000     6.290000000
H     6.804000000    -1.862000000     6.250000000
O     4.056000000    -1.016000000     5.418000000
H     4.100000000    -1.307000000     4.508000000
H     3.397000000    -1.583000000     5.819000000
O     7.141000000     0.196000000     2.380000000
H     7.672000000     0.649000000     1.726000000
H     6.413000000    -0.175000000     1.883000000
O     7.577000000    -5.450000000     1.753000000
H     8.166000000    -4.832000000     1.319000000
H     6.837000000    -4.914000000     2.040000000
O     2.164000000     2.307000000     0.752000000
H     1.850000000     1.418000000     0.591000000
H     2.326000000     2.337000000     1.695000000
O     3.884000000     1.414000000     6.302000000
H     3.831000000     0.488000000     6.067000000
H     4.690000000     1.486000000     6.814000000
O     4.193000000    -4.067000000     5.935000000
H     5.012000000    -3.642000000     5.680000000
H     4.465000000    -4.900000000     6.320000000
O     7.633000000     1.246000000    -0.349000000
H     7.503000000     0.844000000    -1.208000000
H     6.749000000     1.342000000     0.006000000
O     4.146000000    -6.229000000     3.248000000
H     4.663000000    -6.535000000     3.993000000
H     3.243000000    -6.231000000     3.566000000
O     9.533000000     2.017000000     3.481000000
H     8.660000000     1.626000000     3.433000000
H     9.912000000     1.863000000     2.616000000
O     8.307000000    -2.130000000     3.271000000
H     7.999000000    -2.805000000     2.665000000
H     7.844000000    -1.337000000     3.001000000
O     5.581000000    -3.718000000     2.356000000
H     4.899000000    -4.357000000     2.563000000
H     5.154000000    -2.868000000     2.466000000
O     6.864000000     4.250000000     0.160000000
H     6.605000000     4.788000000     0.908000000
H     6.508000000     3.383000000     0.354000000
O     6.809000000    -2.760000000    -0.072000000
H     6.388000000    -1.957000000     0.236000000
H     6.410000000    -3.456000000     0.451000000
O     5.031000000     1.994000000     1.039000000
H     5.008000000     1.472000000     1.841000000
H     4.140000000     2.332000000     0.948000000
O     6.418000000     2.073000000     4.610000000
H     5.571000000     2.317000000     4.239000000
H     6.610000000     1.217000000     4.228000000
