201
-1244.19689
C    -1.446000000    -4.096000000     2.503000000
H    -1.530000000    -4.492000000     1.494000000
C    -2.102000000    -2.880000000     2.772000000
C    -1.935000000    -2.303000000     4.080000000
H    -2.475000000    -1.401000000     4.355000000
C    -2.919000000    -2.197000000     1.685000000
O    -3.427000000    -3.251000000     0.805000000
H    -2.166000000    -1.600000000     1.148000000
O    -4.000000000    -1.449000000     2.177000000
C    -4.309000000    -0.256000000     1.566000000
C    -3.942000000     0.908000000     2.308000000
H    -3.560000000     0.757000000     3.315000000
C    -4.015000000     2.191000000     1.694000000
O    -3.307000000     3.143000000     2.319000000
C    -4.402000000     2.294000000     0.399000000
C    -4.330000000     3.679000000    -0.322000000
H    -5.167000000     3.704000000    -1.022000000
C    -2.994000000     3.791000000    -1.044000000
C    -2.881000000     3.549000000    -2.395000000
H    -3.780000000     3.284000000    -2.946000000
H    -4.444000000     4.498000000     0.392000000
C    -4.841000000     1.188000000    -0.293000000
H    -5.256000000     1.327000000    -1.288000000
C    -4.802000000    -0.081000000     0.317000000
C    -5.247000000    -1.298000000    -0.476000000
H    -6.009000000    -1.012000000    -1.204000000
H    -5.731000000    -1.994000000     0.212000000
C    -4.142000000    -2.117000000    -1.179000000
C    -3.858000000    -1.738000000    -2.483000000
H    -4.523000000    -0.986000000    -2.901000000
C    -3.363000000    -3.040000000    -0.582000000
C    -2.422000000    -3.718000000    -1.282000000
H    -1.818000000    -4.506000000    -0.838000000
C    -2.147000000    -3.387000000    -2.596000000
O    -0.988000000    -3.871000000    -3.183000000
C     0.132000000    -3.046000000    -3.130000000
C     1.455000000    -3.834000000    -2.820000000
C     2.654000000    -3.379000000    -3.283000000
H     2.761000000    -2.451000000    -3.838000000
C     1.428000000    -4.966000000    -1.996000000
H     0.457000000    -5.425000000    -1.826000000
O     0.359000000    -2.252000000    -4.353000000
H     0.053000000    -2.332000000    -2.298000000
C    -2.881000000    -2.375000000    -3.246000000
C    -2.475000000    -1.871000000    -4.662000000
H    -3.391000000    -1.572000000    -5.176000000
H    -2.109000000    -2.655000000    -5.329000000
C    -1.483000000    -0.755000000    -4.618000000
C    -1.924000000     0.580000000    -4.542000000
H    -2.980000000     0.836000000    -4.553000000
C    -0.107000000    -0.984000000    -4.581000000
C     0.781000000     0.066000000    -4.517000000
H     1.837000000    -0.129000000    -4.347000000
C     0.380000000     1.365000000    -4.629000000
O     1.401000000     2.278000000    -4.386000000
C     1.456000000     2.889000000    -3.087000000
C     2.884000000     2.986000000    -2.530000000
C     3.798000000     2.009000000    -2.872000000
H     3.534000000     1.282000000    -3.636000000
C     3.174000000     3.915000000    -1.543000000
H     2.494000000     4.707000000    -1.238000000
O     0.700000000     4.100000000    -2.912000000
H     1.000000000     2.153000000    -2.408000000
C    -0.983000000     1.661000000    -4.607000000
C    -1.538000000     3.130000000    -4.545000000
H    -2.436000000     3.286000000    -5.146000000
H    -0.842000000     3.826000000    -5.018000000
C    -1.655000000     3.594000000    -3.029000000
C    -0.515000000     3.978000000    -2.295000000
C    -0.596000000     4.319000000    -0.950000000
H     0.300000000     4.548000000    -0.378000000
C    -1.807000000     4.197000000    -0.325000000
O    -1.765000000     4.404000000     1.036000000
C    -1.928000000     3.308000000     1.940000000
H    -1.604000000     2.412000000     1.391000000
C    -1.005000000     3.517000000     3.121000000
C    -1.140000000     2.832000000     4.348000000
H    -1.896000000     2.053000000     4.405000000
C     0.133000000     4.332000000     3.015000000
H     0.338000000     4.898000000     2.110000000
C     1.003000000     4.544000000     4.114000000
O     1.964000000     5.464000000     4.054000000
C     0.786000000     3.854000000     5.311000000
H     1.517000000     4.019000000     6.097000000
C    -0.221000000     2.971000000     5.392000000
O    -0.417000000     2.355000000     6.621000000
C    -1.151000000     1.264000000     6.941000000
C    -0.842000000    -0.008000000     6.347000000
H     0.065000000    -0.137000000     5.763000000
C    -2.251000000     1.370000000     7.732000000
H    -2.573000000     2.306000000     8.182000000
C    -3.046000000     0.231000000     8.033000000
H    -3.874000000     0.242000000     8.737000000
C    -2.606000000    -0.997000000     7.567000000
H    -3.164000000    -1.834000000     7.979000000
C    -1.537000000    -1.157000000     6.800000000
O    -1.165000000    -2.373000000     6.346000000
C    -1.144000000    -2.893000000     5.023000000
C    -0.378000000    -4.038000000     4.680000000
H     0.346000000    -4.463000000     5.371000000
C    -0.458000000    -4.599000000     3.435000000
O     0.299000000    -5.695000000     3.139000000
C     0.340000000    -6.487000000     1.965000000
C     1.442000000    -6.323000000     1.170000000
H     2.177000000    -5.573000000     1.449000000
C    -0.694000000    -7.391000000     1.743000000
H    -1.541000000    -7.509000000     2.414000000
C    -0.567000000    -8.183000000     0.569000000
H    -1.234000000    -9.029000000     0.427000000
C     0.493000000    -8.008000000    -0.289000000
H     0.536000000    -8.741000000    -1.090000000
C     1.453000000    -7.060000000    -0.012000000
O     2.450000000    -6.797000000    -0.938000000
C     2.587000000    -5.628000000    -1.601000000
C     3.842000000    -5.179000000    -2.069000000
H     4.695000000    -5.834000000    -1.910000000
C     3.830000000    -4.066000000    -2.958000000
O     5.050000000    -3.783000000    -3.493000000
C     5.404000000    -2.462000000    -3.788000000
C     5.373000000    -1.440000000    -2.835000000
H     5.106000000    -1.668000000    -1.806000000
C     5.859000000    -2.202000000    -5.032000000
H     5.971000000    -3.067000000    -5.681000000
C     6.246000000    -0.946000000    -5.450000000
H     6.611000000    -0.696000000    -6.443000000
C     6.222000000     0.079000000    -4.497000000
H     6.682000000     1.032000000    -4.743000000
C     5.790000000    -0.149000000    -3.167000000
O     5.847000000     0.825000000    -2.133000000
C     4.931000000     1.820000000    -2.018000000
C     5.184000000     2.774000000    -0.953000000
H     6.102000000     2.717000000    -0.372000000
C     4.361000000     3.883000000    -0.783000000
O     4.790000000     4.779000000     0.237000000
C     3.912000000     5.534000000     0.943000000
C     3.834000000     6.852000000     0.546000000
H     4.516000000     7.095000000    -0.265000000
C     2.998000000     7.634000000     1.283000000
H     2.933000000     8.694000000     1.050000000
C     2.371000000     7.241000000     2.443000000
H     1.795000000     7.937000000     3.048000000
C     2.504000000     5.892000000     2.835000000
C     3.227000000     5.009000000     2.041000000
H     3.276000000     3.951000000     2.285000000
O     9.283000000    -2.787000000    -0.831000000
H     8.414000000    -2.742000000    -0.431000000
H     9.622000000    -3.644000000    -0.572000000
O     5.208000000    -0.455000000     0.569000000
H     5.798000000    -0.194000000    -0.138000000
H     5.372000000    -1.391000000     0.685000000
O     6.144000000    -0.596000000     7.243000000
H     6.591000000    -1.430000000     7.097000000
H     6.025000000    -0.230000000     6.367000000
O     2.840000000     1.363000000     4.692000000
H     2.744000000     0.419000000     4.822000000
H     2.959000000     1.463000000     3.747000000
O     6.497000000    -5.005000000     5.058000000
H     5.579000000    -5.273000000     5.009000000
H     6.572000000    -4.288000000     4.428000000
O     5.281000000    -5.922000000     1.121000000
H     5.466000000    -5.925000000     2.060000000
H     4.748000000    -5.139000000     0.985000000
O     9.097000000    -3.900000000     2.963000000
H     9.131000000    -4.808000000     3.262000000
H     8.163000000    -3.715000000     2.865000000
O     5.587000000     0.196000000     4.756000000
H     4.646000000     0.083000000     4.626000000
H     5.723000000     1.143000000     4.719000000
O     6.897000000    -8.172000000     0.573000000
H     6.346000000    -8.832000000     0.994000000
H     6.429000000    -7.348000000     0.706000000
O     3.670000000     1.501000000     2.192000000
H     2.907000000     1.527000000     1.615000000
H     4.283000000     0.911000000     1.753000000
O     5.472000000    -7.815000000     3.890000000
H     4.946000000    -7.061000000     4.158000000
H     5.522000000    -8.362000000     4.674000000
O     8.465000000     0.382000000     2.511000000
H     8.668000000     0.259000000     1.584000000
H     7.570000000     0.722000000     2.517000000
O     3.777000000    -5.224000000     4.262000000
H     3.450000000    -5.002000000     5.133000000
H     3.759000000    -4.396000000     3.781000000
O     6.391000000    -3.279000000     3.126000000
H     5.622000000    -3.319000000     2.558000000
H     6.226000000    -2.531000000     3.700000000
O     6.544000000    -3.152000000    -0.190000000
H     6.579000000    -3.937000000    -0.736000000
H     5.794000000    -3.295000000     0.387000000
O     3.142000000    -4.302000000     6.578000000
H     3.453000000    -4.475000000     7.467000000
H     2.367000000    -3.754000000     6.699000000
O     3.020000000    -1.182000000     5.100000000
H     2.857000000    -1.734000000     5.864000000
H     3.380000000    -1.779000000     4.444000000
O     5.951000000     2.637000000     2.607000000
H     5.932000000     3.555000000     2.337000000
H     5.032000000     2.408000000     2.743000000
O     2.365000000    -7.303000000     5.819000000
H     2.534000000    -6.681000000     5.112000000
H     1.414000000    -7.295000000     5.922000000
